Auto-Transcript Start Time:  12:07:09, 09 Nov 2023 Hora oficial do Brasil 
Current Directory: "H:\Meu Drive\TCC\Programming\cnn-hypersonic"
Information: The server has started and is running.

              Welcome to ANSYS Fluent 2023 R1

              Copyright 1987-2023 ANSYS, Inc. All Rights Reserved.
              Unauthorized use, distribution or duplication is prohibited.
              This product is subject to U.S. laws governing export and re-export.
              For full Legal Notice, see documentation.

Build Time: Nov 28 2022 09:52:02 EST  Build Id: 10208  
 
Connected License Server List:	1055@localhost
Host spawning Node 0 on machine "Guilherme" (win64).

-------------------------------------------------------------------------------------------
ID    Hostname   Core  O.S.         PID    Vendor                                          
-------------------------------------------------------------------------------------------
n7    Guilherme  8/8  Windows-x64  15616  11th Gen Intel(R) Core(TM) i5-1135G7 @ 2.40GHz  
n6    Guilherme  7/8  Windows-x64  9968   11th Gen Intel(R) Core(TM) i5-1135G7 @ 2.40GHz  
n5    Guilherme  6/8  Windows-x64  20432  11th Gen Intel(R) Core(TM) i5-1135G7 @ 2.40GHz  
n4    Guilherme  5/8  Windows-x64  11200  11th Gen Intel(R) Core(TM) i5-1135G7 @ 2.40GHz  
n3    Guilherme  4/8  Windows-x64  14036  11th Gen Intel(R) Core(TM) i5-1135G7 @ 2.40GHz  
n2    Guilherme  3/8  Windows-x64  13360  11th Gen Intel(R) Core(TM) i5-1135G7 @ 2.40GHz  
n1    Guilherme  2/8  Windows-x64  22500  11th Gen Intel(R) Core(TM) i5-1135G7 @ 2.40GHz  
n0*   Guilherme  1/8  Windows-x64  13928  11th Gen Intel(R) Core(TM) i5-1135G7 @ 2.40GHz  
host  Guilherme       Windows-x64  16056  11th Gen Intel(R) Core(TM) i5-1135G7 @ 2.40GHz  

MPI Option Selected: intel
Selected system interconnect: default
-------------------------------------------------------------------------------------------

Cleanup script file is H:\\Meu Drive\\TCC\\Programming\\cnn-hypersonic\\cleanup-fluent-Guilherme-16056.bat

> 
0: mpt_accept: error: accept failed: No error

0: mpt_accept: error: accept failed: No error

0: mpt_accept: error: accept failed: No error

0: mpt_accept: error: accept failed: No error

0: mpt_accept: error: accept failed: No error

0: mpt_accept: error: accept failed: No error

0: mpt_accept: error: accept failed: No error

0: mpt_accept: error: accept failed: No error

0: mpt_accept: error: accept failed: No error

0: mpt_accept: error: accept failed: No error

0: mpt_accept: error: accept failed: No error

0: mpt_accept: error: accept failed: No error

0: mpt_accept: error: accept failed: No error

0: mpt_accept: error: accept failed: No error

0: mpt_accept: error: accept failed: No error

0: mpt_accept: error: accept failed: No error

0: mpt_accept: error: accept failed: No error

0: mpt_accept: error: accept failed: No error

0: mpt_accept: error: accept failed: No error

0: mpt_accept: error: accept failed: No error

0: mpt_accept: error: accept failed: No error

0: mpt_accept: error: accept failed: No error

0: mpt_accept: error: accept failed: No error

0: mpt_accept: error: accept failed: No error

0: mpt_accept: error: accept failed: No error

0: mpt_accept: error: accept failed: No error

0: mpt_accept: error: accept failed: No error

0: mpt_accept: error: accept failed: No error

0: mpt_accept: error: accept failed: No error

0: mpt_accept: error: accept failed: No error

0: mpt_accept: error: accept failed: No error

0: mpt_accept: error: accept failed: No error

0: mpt_accept: error: accept failed: No error

0: mpt_accept: error: accept failed: No error

0: mpt_accept: error: accept failed: No error

0: mpt_accept: error: accept failed: No error

0: mpt_accept: error: accept failed: No error

0: mpt_accept: error: accept failed: No error

0: mpt_accept: error: accept failed: No error

0: mpt_accept: error: accept failed: No error

0: mpt_accept: error: accept failed: No error

0: mpt_accept: error: accept failed: No error

0: mpt_accept: error: accept failed: No error

0: mpt_accept: error: accept failed: No error

0: mpt_accept: error: accept failed: No error

0: mpt_accept: error: accept failed: No error

0: mpt_accept: error: accept failed: No error

0: mpt_accept: error: accept failed: No error

0: mpt_accept: error: accept failed: No error

0: mpt_accept: error: accept failed: No error

0: mpt_accept: error: accept failed: No error

0: mpt_accept: error: accept failed: No error

0: mpt_accept: error: accept failed: No error

0: mpt_accept: error: accept failed: No error

0: mpt_accept: error: accept failed: No error

0: mpt_accept: error: accept failed: No error

0: mpt_accept: error: accept failed: No error

0: mpt_accept: error: accept failed: No error

0: mpt_accept: error: accept failed: No error

0: mpt_accept: error: accept failed: No error

0: mpt_accept: error: accept failed: No error

0: mpt_accept: error: accept failed: No error

0: mpt_accept: error: accept failed: No error

0: mpt_accept: error: accept failed: No error

0: mpt_accept: error: accept failed: No error

0: mpt_accept: error: accept failed: No error

0: mpt_accept: error: accept failed: No error

0: mpt_accept: error: accept failed: No error

0: mpt_accept: error: accept failed: No error

0: mpt_accept: error: accept failed: No error

0: mpt_accept: error: accept failed: No error

0: mpt_accept: error: accept failed: No error

0: mpt_accept: error: accept failed: No error

0: mpt_accept: error: accept failed: No error

0: mpt_accept: error: accept failed: No error

0: mpt_accept: error: accept failed: No error

0: mpt_accept: error: accept failed: No error

0: mpt_accept: error: accept failed: No error

0: mpt_accept: error: accept failed: No error

0: mpt_accept: error: accept failed: No error

0: mpt_accept: error: accept failed: No error

0: mpt_accept: error: accept failed: No error

0: mpt_accept: error: accept failed: No error

0: mpt_accept: error: accept failed: No error

0: mpt_accept: error: accept failed: No error

0: mpt_accept: error: accept failed: No error

0: mpt_accept: error: accept failed: No error

0: mpt_accept: error: accept failed: No error

0: mpt_accept: error: accept failed: No error

0: mpt_accept: error: accept failed: No error

0: mpt_accept: error: accept failed: No error

0: mpt_accept: error: accept failed: No error

0: mpt_accept: error: accept failed: No error

0: mpt_accept: error: accept failed: No error

0: mpt_accept: error: accept failed: No error

0: mpt_accept: error: accept failed: No error

0: mpt_accept: error: accept failed: No error

0: mpt_accept: error: accept failed: No error

0: mpt_accept: error: accept failed: No error

0: mpt_accept: error: accept failed: No error

0: mpt_accept: error: accept failed: No error

0: mpt_accept: error: accept failed: No error

0: mpt_accept: error: accept failed: No error

0: mpt_accept: error: accept failed: No error

0: mpt_accept: error: accept failed: No error

0: mpt_accept: error: accept failed: No error

0: mpt_accept: error: accept failed: No error

0: mpt_accept: error: accept failed: No error

0: mpt_accept: error: accept failed: No error

0: mpt_accept: error: accept failed: No error

0: mpt_accept: error: accept failed: No error

0: mpt_accept: error: accept failed: No error

0: mpt_accept: error: accept failed: No error

0: mpt_accept: error: accept failed: No error

0: mpt_accept: error: accept failed: No error

0: mpt_accept: error: accept failed: No error

0: mpt_accept: error: accept failed: No error

0: mpt_accept: error: accept failed: No error

0: mpt_accept: error: accept failed: No error

0: mpt_accept: error: accept failed: No error

0: mpt_accept: error: accept failed: No error

0: mpt_accept: error: accept failed: No error

0: mpt_accept: error: accept failed: No error

0: mpt_accept: error: accept failed: No error

0: mpt_accept: error: accept failed: No error

0: mpt_accept: error: accept failed: No error

0: mpt_accept: error: accept failed: No error

0: mpt_accept: error: accept failed: No error

0: mpt_accept: error: accept failed: No error

0: mpt_accept: error: accept failed: No error

0: mpt_accept: error: accept failed: No error

0: mpt_accept: error: accept failed: No error

0: mpt_accept: error: accept failed: No error

0: mpt_accept: error: accept failed: No error

0: mpt_accept: error: accept failed: No error

0: mpt_accept: error: accept failed: No error

0: mpt_accept: error: accept failed: No error

0: mpt_accept: error: accept failed: No error

0: mpt_accept: error: accept failed: No error

0: mpt_accept: error: accept failed: No error

0: mpt_accept: error: accept failed: No error

0: mpt_accept: error: accept failed: No error

0: mpt_accept: error: accept failed: No error

0: mpt_accept: error: accept failed: No error

0: mpt_accept: error: accept failed: No error

0: mpt_accept: error: accept failed: No error

0: mpt_accept: error: accept failed: No error

0: mpt_accept: error: accept failed: No error

0: mpt_accept: error: accept failed: No error

0: mpt_accept: error: accept failed: No error

0: mpt_accept: error: accept failed: No error

0: mpt_accept: error: accept failed: No error

0: mpt_accept: error: accept failed: No error

0: mpt_accept: error: accept failed: No error

0: mpt_accept: error: accept failed: No error

0: mpt_accept: error: accept failed: No error

0: mpt_accept: error: accept failed: No error

0: mpt_accept: error: accept failed: No error

0: mpt_accept: error: accept failed: No error

0: mpt_accept: error: accept failed: No error

0: mpt_accept: error: accept failed: No error

0: mpt_accept: error: accept failed: No error

0: mpt_accept: error: accept failed: No error

0: mpt_accept: error: accept failed: No error

0: mpt_accept: error: accept failed: No error

0: mpt_accept: error: accept failed: No error

0: mpt_accept: error: accept failed: No error

0: mpt_accept: error: accept failed: No error

0: mpt_accept: error: accept failed: No error

0: mpt_accept: error: accept failed: No error

0: mpt_accept: error: accept failed: No error

0: mpt_accept: error: accept failed: No error

0: mpt_accept: error: accept failed: No error

0: mpt_accept: error: accept failed: No error

0: mpt_accept: error: accept failed: No error

0: mpt_accept: error: accept failed: No error

0: mpt_accept: error: accept failed: No error

0: mpt_accept: error: accept failed: No error

0: mpt_accept: error: accept failed: No error

0: mpt_accept: error: accept failed: No error

0: mpt_accept: error: accept failed: No error

0: mpt_accept: error: accept failed: No error

0: mpt_accept: error: accept failed: No error

0: mpt_accept: error: accept failed: No error

0: mpt_accept: error: accept failed: No error

0: mpt_accept: error: accept failed: No error

0: mpt_accept: error: accept failed: No error

0: mpt_accept: error: accept failed: No error

0: mpt_accept: error: accept failed: No error

0: mpt_accept: error: accept failed: No error

0: mpt_accept: error: accept failed: No error

0: mpt_accept: error: accept failed: No error

0: mpt_accept: error: accept failed: No error

0: mpt_accept: error: accept failed: No error

0: mpt_accept: error: accept failed: No error

0: mpt_accept: error: accept failed: No error

0: mpt_accept: error: accept failed: No error

0: mpt_accept: error: accept failed: No error

0: mpt_accept: error: accept failed: No error

0: mpt_accept: error: accept failed: No error

0: mpt_accept: error: accept failed: No error

0: mpt_accept: error: accept failed: No error

0: mpt_accept: error: accept failed: No error

0: mpt_accept: error: accept failed: No error

0: mpt_accept: error: accept failed: No error

0: mpt_accept: error: accept failed: No error

0: mpt_accept: error: accept failed: No error

0: mpt_accept: error: accept failed: No error

0: mpt_accept: error: accept failed: No error

0: mpt_accept: error: accept failed: No error

0: mpt_accept: error: accept failed: No error

0: mpt_accept: error: accept failed: No error

0: mpt_accept: error: accept failed: No error

0: mpt_accept: error: accept failed: No error

0: mpt_accept: error: accept failed: No error

0: mpt_accept: error: accept failed: No error

0: mpt_accept: error: accept failed: No error

0: mpt_accept: error: accept failed: No error

0: mpt_accept: error: accept failed: No error

0: mpt_accept: error: accept failed: No error

0: mpt_accept: error: accept failed: No error

0: mpt_accept: error: accept failed: No error

0: mpt_accept: error: accept failed: No error

0: mpt_accept: error: accept failed: No error

0: mpt_accept: error: accept failed: No error

0: mpt_accept: error: accept failed: No error

0: mpt_accept: error: accept failed: No error

0: mpt_accept: error: accept failed: No error

0: mpt_accept: error: accept failed: No error

0: mpt_accept: error: accept failed: No error

0: mpt_accept: error: accept failed: No error

0: mpt_accept: error: accept failed: No error

0: mpt_accept: error: accept failed: No error

0: mpt_accept: error: accept failed: No error

0: mpt_accept: error: accept failed: No error

0: mpt_accept: error: accept failed: No error

0: mpt_accept: error: accept failed: No error

0: mpt_accept: error: accept failed: No error

0: mpt_accept: error: accept failed: No error

0: mpt_accept: error: accept failed: No error

0: mpt_accept: error: accept failed: No error

0: mpt_accept: error: accept failed: No error

0: mpt_accept: error: accept failed: No error

0: mpt_accept: error: accept failed: No error

0: mpt_accept: error: accept failed: No error

0: mpt_accept: error: accept failed: No error

0: mpt_accept: error: accept failed: No error

0: mpt_accept: error: accept failed: No error

0: mpt_accept: error: accept failed: No error

0: mpt_accept: error: accept failed: No error

0: mpt_accept: error: accept failed: No error

0: mpt_accept: error: accept failed: No error

0: mpt_accept: error: accept failed: No error

0: mpt_accept: error: accept failed: No error

0: mpt_accept: error: accept failed: No error

0: mpt_accept: error: accept failed: No error

0: mpt_accept: error: accept failed: No error

0: mpt_accept: error: accept failed: No error

0: mpt_accept: error: accept failed: No error

0: mpt_accept: error: accept failed: No error

0: mpt_accept: error: accept failed: No error

0: mpt_accept: error: accept failed: No error

0: mpt_accept: error: accept failed: No error

0: mpt_accept: error: accept failed: No error

0: mpt_accept: error: accept failed: No error

0: mpt_accept: error: accept failed: No error

0: mpt_accept: error: accept failed: No error

0: mpt_accept: error: accept failed: No error

0: mpt_accept: error: accept failed: No error

0: mpt_accept: error: accept failed: No error

0: mpt_accept: error: accept failed: No error

0: mpt_accept: error: accept failed: No error

0: mpt_accept: error: accept failed: No error

0: mpt_accept: error: accept failed: No error

0: mpt_accept: error: accept failed: No error

0: mpt_accept: error: accept failed: No error

0: mpt_accept: error: accept failed: No error

0: mpt_accept: error: accept failed: No error

0: mpt_accept: error: accept failed: No error

0: mpt_accept: error: accept failed: No error

0: mpt_accept: error: accept failed: No error

0: mpt_accept: error: accept failed: No error

0: mpt_accept: error: accept failed: No error

0: mpt_accept: error: accept failed: No error

0: mpt_accept: error: accept failed: No error

0: mpt_accept: error: accept failed: No error

0: mpt_accept: error: accept failed: No error

0: mpt_accept: error: accept failed: No error

0: mpt_accept: error: accept failed: No error

0: mpt_accept: error: accept failed: No error

0: mpt_accept: error: accept failed: No error

0: mpt_accept: error: accept failed: No error

0: mpt_accept: error: accept failed: No error

0: mpt_accept: error: accept failed: No error

0: mpt_accept: error: accept failed: No error

0: mpt_accept: error: accept failed: No error

0: mpt_accept: error: accept failed: No error

0: mpt_accept: error: accept failed: No error

0: mpt_accept: error: accept failed: No error

0: mpt_accept: error: accept failed: No error

0: mpt_accept: error: accept failed: No error

0: mpt_accept: error: accept failed: No error

0: mpt_accept: error: accept failed: No error

0: mpt_accept: error: accept failed: No error

0: mpt_accept: error: accept failed: No error

0: mpt_accept: error: accept failed: No error

0: mpt_accept: error: accept failed: No error

0: mpt_accept: error: accept failed: No error

0: mpt_accept: error: accept failed: No error

0: mpt_accept: error: accept failed: No error

0: mpt_accept: error: accept failed: No error

0: mpt_accept: error: accept failed: No error

0: mpt_accept: error: accept failed: No error

0: mpt_accept: error: accept failed: No error

0: mpt_accept: error: accept failed: No error

0: mpt_accept: error: accept failed: No error

0: mpt_accept: error: accept failed: No error

0: mpt_accept: error: accept failed: No error

0: mpt_accept: error: accept failed: No error

0: mpt_accept: error: accept failed: No error

0: mpt_accept: error: accept failed: No error

0: mpt_accept: error: accept failed: No error

0: mpt_accept: error: accept failed: No error

0: mpt_accept: error: accept failed: No error

0: mpt_accept: error: accept failed: No error

0: mpt_accept: error: accept failed: No error

0: mpt_accept: error: accept failed: No error

0: mpt_accept: error: accept failed: No error

0: mpt_accept: error: accept failed: No error

0: mpt_accept: error: accept failed: No error

0: mpt_accept: error: accept failed: No error

0: mpt_accept: error: accept failed: No error

0: mpt_accept: error: accept failed: No error

0: mpt_accept: error: accept failed: No error

0: mpt_accept: error: accept failed: No error

0: mpt_accept: error: accept failed: No error

0: mpt_accept: error: accept failed: No error

0: mpt_accept: error: accept failed: No error

0: mpt_accept: error: accept failed: No error

0: mpt_accept: error: accept failed: No error

0: mpt_accept: error: accept failed: No error

0: mpt_accept: error: accept failed: No error

0: mpt_accept: error: accept failed: No error

0: mpt_accept: error: accept failed: No error

0: mpt_accept: error: accept failed: No error

0: mpt_accept: error: accept failed: No error

0: mpt_accept: error: accept failed: No error

0: mpt_accept: error: accept failed: No error

0: mpt_accept: error: accept failed: No error

0: mpt_accept: error: accept failed: No error

0: mpt_accept: error: accept failed: No error

0: mpt_accept: error: accept failed: No error

0: mpt_accept: error: accept failed: No error

0: mpt_accept: error: accept failed: No error

0: mpt_accept: error: accept failed: No error

0: mpt_accept: error: accept failed: No error

0: mpt_accept: error: accept failed: No error

0: mpt_accept: error: accept failed: No error

0: mpt_accept: error: accept failed: No error

0: mpt_accept: error: accept failed: No error

0: mpt_accept: error: accept failed: No error

0: mpt_accept: error: accept failed: No error

0: mpt_accept: error: accept failed: No error

0: mpt_accept: error: accept failed: No error

0: mpt_accept: error: accept failed: No error

0: mpt_accept: error: accept failed: No error

0: mpt_accept: error: accept failed: No error

0: mpt_accept: error: accept failed: No error

0: mpt_accept: error: accept failed: No error

0: mpt_accept: error: accept failed: No error

0: mpt_accept: error: accept failed: No error

0: mpt_accept: error: accept failed: No error

0: mpt_accept: error: accept failed: No error

0: mpt_accept: error: accept failed: No error

0: mpt_accept: error: accept failed: No error

0: mpt_accept: error: accept failed: No error

0: mpt_accept: error: accept failed: No error

0: mpt_accept: error: accept failed: No error

0: mpt_accept: error: accept failed: No error

0: mpt_accept: error: accept failed: No error

0: mpt_accept: error: accept failed: No error

0: mpt_accept: error: accept failed: No error

0: mpt_accept: error: accept failed: No error

0: mpt_accept: error: accept failed: No error

0: mpt_accept: error: accept failed: No error

0: mpt_accept: error: accept failed: No error

0: mpt_accept: error: accept failed: No error

0: mpt_accept: error: accept failed: No error

0: mpt_accept: error: accept failed: No error

0: mpt_accept: error: accept failed: No error

0: mpt_accept: error: accept failed: No error

0: mpt_accept: error: accept failed: No error

0: mpt_accept: error: accept failed: No error

0: mpt_accept: error: accept failed: No error

0: mpt_accept: error: accept failed: No error

0: mpt_accept: error: accept failed: No error

0: mpt_accept: error: accept failed: No error

0: mpt_accept: error: accept failed: No error

0: mpt_accept: error: accept failed: No error

0: mpt_accept: error: accept failed: No error

0: mpt_accept: error: accept failed: No error

0: mpt_accept: error: accept failed: No error

0: mpt_accept: error: accept failed: No error

0: mpt_accept: error: accept failed: No error

0: mpt_accept: error: accept failed: No error

0: mpt_accept: error: accept failed: No error

0: mpt_accept: error: accept failed: No error

0: mpt_accept: error: accept failed: No error

0: mpt_accept: error: accept failed: No error

0: mpt_accept: error: accept failed: No error

0: mpt_accept: error: accept failed: No error

0: mpt_accept: error: accept failed: No error

0: mpt_accept: error: accept failed: No error

0: mpt_accept: error: accept failed: No error

0: mpt_accept: error: accept failed: No error

0: mpt_accept: error: accept failed: No error

0: mpt_accept: error: accept failed: No error

0: mpt_accept: error: accept failed: No error

0: mpt_accept: error: accept failed: No error

0: mpt_accept: error: accept failed: No error

0: mpt_accept: error: accept failed: No error

0: mpt_accept: error: accept failed: No error

0: mpt_accept: error: accept failed: No error

0: mpt_accept: error: accept failed: No error

0: mpt_accept: error: accept failed: No error

0: mpt_accept: error: accept failed: No error

0: mpt_accept: error: accept failed: No error

0: mpt_accept: error: accept failed: No error

0: mpt_accept: error: accept failed: No error

0: mpt_accept: error: accept failed: No error

0: mpt_accept: error: accept failed: No error

0: mpt_accept: error: accept failed: No error

0: mpt_accept: error: accept failed: No error

0: mpt_accept: error: accept failed: No error

0: mpt_accept: error: accept failed: No error

0: mpt_accept: error: accept failed: No error

0: mpt_accept: error: accept failed: No error

0: mpt_accept: error: accept failed: No error

0: mpt_accept: error: accept failed: No error

0: mpt_accept: error: accept failed: No error

0: mpt_accept: error: accept failed: No error

0: mpt_accept: error: accept failed: No error

0: mpt_accept: error: accept failed: No error

0: mpt_accept: error: accept failed: No error

0: mpt_accept: error: accept failed: No error

0: mpt_accept: error: accept failed: No error

0: mpt_accept: error: accept failed: No error

0: mpt_accept: error: accept failed: No error

0: mpt_accept: error: accept failed: No error

0: mpt_accept: error: accept failed: No error

0: mpt_accept: error: accept failed: No error

0: mpt_accept: error: accept failed: No error

0: mpt_accept: error: accept failed: No error

0: mpt_accept: error: accept failed: No error

0: mpt_accept: error: accept failed: No error

0: mpt_accept: error: accept failed: No error

0: mpt_accept: error: accept failed: No error

0: mpt_accept: error: accept failed: No error

0: mpt_accept: error: accept failed: No error

0: mpt_accept: error: accept failed: No error

0: mpt_accept: error: accept failed: No error

0: mpt_accept: error: accept failed: No error

0: mpt_accept: error: accept failed: No error

0: mpt_accept: error: accept failed: No error

0: mpt_accept: error: accept failed: No error

0: mpt_accept: error: accept failed: No error

0: mpt_accept: error: accept failed: No error

0: mpt_accept: error: accept failed: No error

0: mpt_accept: error: accept failed: No error

0: mpt_accept: error: accept failed: No error

0: mpt_accept: error: accept failed: No error

0: mpt_accept: error: accept failed: No error

0: mpt_accept: error: accept failed: No error

0: mpt_accept: error: accept failed: No error

0: mpt_accept: error: accept failed: No error

0: mpt_accept: error: accept failed: No error

0: mpt_accept: error: accept failed: No error

0: mpt_accept: error: accept failed: No error

0: mpt_accept: error: accept failed: No error

0: mpt_accept: error: accept failed: No error

0: mpt_accept: error: accept failed: No error

0: mpt_accept: error: accept failed: No error

0: mpt_accept: error: accept failed: No error

0: mpt_accept: error: accept failed: No error

0: mpt_accept: error: accept failed: No error

0: mpt_accept: error: accept failed: No error

0: mpt_accept: error: accept failed: No error

0: mpt_accept: error: accept failed: No error

0: mpt_accept: error: accept failed: No error

0: mpt_accept: error: accept failed: No error

0: mpt_accept: error: accept failed: No error

0: mpt_accept: error: accept failed: No error

0: mpt_accept: error: accept failed: No error

0: mpt_accept: error: accept failed: No error

0: mpt_accept: error: accept failed: No error

0: mpt_accept: error: accept failed: No error

0: mpt_accept: error: accept failed: No error

0: mpt_accept: error: accept failed: No error

0: mpt_accept: error: accept failed: No error

0: mpt_accept: error: accept failed: No error

0: mpt_accept: error: accept failed: No error

0: mpt_accept: error: accept failed: No error

0: mpt_accept: error: accept failed: No error

0: mpt_accept: error: accept failed: No error

0: mpt_accept: error: accept failed: No error

0: mpt_accept: error: accept failed: No error

0: mpt_accept: error: accept failed: No error

0: mpt_accept: error: accept failed: No error

0: mpt_accept: error: accept failed: No error

0: mpt_accept: error: accept failed: No error

0: mpt_accept: error: accept failed: No error

0: mpt_accept: error: accept failed: No error

0: mpt_accept: error: accept failed: No error

0: mpt_accept: error: accept failed: No error

0: mpt_accept: error: accept failed: No error

0: mpt_accept: error: accept failed: No error

0: mpt_accept: error: accept failed: No error

0: mpt_accept: error: accept failed: No error

0: mpt_accept: error: accept failed: No error

0: mpt_accept: error: accept failed: No error

0: mpt_accept: error: accept failed: No error

0: mpt_accept: error: accept failed: No error

0: mpt_accept: error: accept failed: No error

0: mpt_accept: error: accept failed: No error

0: mpt_accept: error: accept failed: No error

0: mpt_accept: error: accept failed: No error

0: mpt_accept: error: accept failed: No error

0: mpt_accept: error: accept failed: No error

0: mpt_accept: error: accept failed: No error

0: mpt_accept: error: accept failed: No error

0: mpt_accept: error: accept failed: No error

0: mpt_accept: error: accept failed: No error

0: mpt_accept: error: accept failed: No error

0: mpt_accept: error: accept failed: No error

0: mpt_accept: error: accept failed: No error

0: mpt_accept: error: accept failed: No error

0: mpt_accept: error: accept failed: No error

0: mpt_accept: error: accept failed: No error

0: mpt_accept: error: accept failed: No error

0: mpt_accept: error: accept failed: No error

0: mpt_accept: error: accept failed: No error

0: mpt_accept: error: accept failed: No error

0: mpt_accept: error: accept failed: No error

0: mpt_accept: error: accept failed: No error

0: mpt_accept: error: accept failed: No error

0: mpt_accept: error: accept failed: No error

0: mpt_accept: error: accept failed: No error

0: mpt_accept: error: accept failed: No error

0: mpt_accept: error: accept failed: No error

0: mpt_accept: error: accept failed: No error

0: mpt_accept: error: accept failed: No error

0: mpt_accept: error: accept failed: No error

0: mpt_accept: error: accept failed: No error

0: mpt_accept: error: accept failed: No error

0: mpt_accept: error: accept failed: No error

0: mpt_accept: error: accept failed: No error

0: mpt_accept: error: accept failed: No error

0: mpt_accept: error: accept failed: No error

0: mpt_accept: error: accept failed: No error

0: mpt_accept: error: accept failed: No error

0: mpt_accept: error: accept failed: No error

0: mpt_accept: error: accept failed: No error

0: mpt_accept: error: accept failed: No error

0: mpt_accept: error: accept failed: No error

0: mpt_accept: error: accept failed: No error

0: mpt_accept: error: accept failed: No error

0: mpt_accept: error: accept failed: No error

0: mpt_accept: error: accept failed: No error

0: mpt_accept: error: accept failed: No error

0: mpt_accept: error: accept failed: No error

0: mpt_accept: error: accept failed: No error

0: mpt_accept: error: accept failed: No error

0: mpt_accept: error: accept failed: No error

0: mpt_accept: error: accept failed: No error

0: mpt_accept: error: accept failed: No error

0: mpt_accept: error: accept failed: No error

0: mpt_accept: error: accept failed: No error

0: mpt_accept: error: accept failed: No error

0: mpt_accept: error: accept failed: No error

0: mpt_accept: error: accept failed: No error

0: mpt_accept: error: accept failed: No error

0: mpt_accept: error: accept failed: No error

0: mpt_accept: error: accept failed: No error

0: mpt_accept: error: accept failed: No error

0: mpt_accept: error: accept failed: No error

0: mpt_accept: error: accept failed: No error

0: mpt_accept: error: accept failed: No error

0: mpt_accept: error: accept failed: No error

0: mpt_accept: error: accept failed: No error

0: mpt_accept: error: accept failed: No error

0: mpt_accept: error: accept failed: No error

0: mpt_accept: error: accept failed: No error

0: mpt_accept: error: accept failed: No error

0: mpt_accept: error: accept failed: No error

0: mpt_accept: error: accept failed: No error

0: mpt_accept: error: accept failed: No error

0: mpt_accept: error: accept failed: No error

0: mpt_accept: error: accept failed: No error

0: mpt_accept: error: accept failed: No error

0: mpt_accept: error: accept failed: No error

0: mpt_accept: error: accept failed: No error

0: mpt_accept: error: accept failed: No error

0: mpt_accept: error: accept failed: No error

0: mpt_accept: error: accept failed: No error

0: mpt_accept: error: accept failed: No error

0: mpt_accept: error: accept failed: No error

0: mpt_accept: error: accept failed: No error

0: mpt_accept: error: accept failed: No error

0: mpt_accept: error: accept failed: No error

0: mpt_accept: error: accept failed: No error

0: mpt_accept: error: accept failed: No error

0: mpt_accept: error: accept failed: No error

0: mpt_accept: error: accept failed: No error

0: mpt_accept: error: accept failed: No error

0: mpt_accept: error: accept failed: No error

0: mpt_accept: error: accept failed: No error

0: mpt_accept: error: accept failed: No error

0: mpt_accept: error: accept failed: No error

0: mpt_accept: error: accept failed: No error

0: mpt_accept: error: accept failed: No error

0: mpt_accept: error: accept failed: No error

0: mpt_accept: error: accept failed: No error

0: mpt_accept: error: accept failed: No error

0: mpt_accept: error: accept failed: No error

0: mpt_accept: error: accept failed: No error

0: mpt_accept: error: accept failed: No error

0: mpt_accept: error: accept failed: No error

0: mpt_accept: error: accept failed: No error

0: mpt_accept: error: accept failed: No error

0: mpt_accept: error: accept failed: No error

0: mpt_accept: error: accept failed: No error

0: mpt_accept: error: accept failed: No error

0: mpt_accept: error: accept failed: No error

0: mpt_accept: error: accept failed: No error

0: mpt_accept: error: accept failed: No error

0: mpt_accept: error: accept failed: No error

0: mpt_accept: error: accept failed: No error

0: mpt_accept: error: accept failed: No error

0: mpt_accept: error: accept failed: No error

0: mpt_accept: error: accept failed: No error

0: mpt_accept: error: accept failed: No error

