Auto-Transcript Start Time:  12:26:28, 10 Nov 2023 Hora oficial do Brasil 
Current Directory: "H:\Meu Drive\TCC\Programming\cnn-hypersonic\pyFluent"
Information: The server has started and is running.

              Welcome to ANSYS Fluent 2023 R1

              Copyright 1987-2023 ANSYS, Inc. All Rights Reserved.
              Unauthorized use, distribution or duplication is prohibited.
              This product is subject to U.S. laws governing export and re-export.
              For full Legal Notice, see documentation.

Build Time: Nov 28 2022 09:52:41 EST  Build Id: 10208  
 
Connected License Server List:	1055@localhost
Host spawning Node 0 on machine "Guilherme" (win64).

-------------------------------------------------------------------------------------------
ID    Hostname   Core  O.S.         PID    Vendor                                          
-------------------------------------------------------------------------------------------
n7    Guilherme  8/8  Windows-x64  16316  11th Gen Intel(R) Core(TM) i5-1135G7 @ 2.40GHz  
n6    Guilherme  7/8  Windows-x64  20284  11th Gen Intel(R) Core(TM) i5-1135G7 @ 2.40GHz  
n5    Guilherme  6/8  Windows-x64  12404  11th Gen Intel(R) Core(TM) i5-1135G7 @ 2.40GHz  
n4    Guilherme  5/8  Windows-x64  12532  11th Gen Intel(R) Core(TM) i5-1135G7 @ 2.40GHz  
n3    Guilherme  4/8  Windows-x64  21900  11th Gen Intel(R) Core(TM) i5-1135G7 @ 2.40GHz  
n2    Guilherme  3/8  Windows-x64  21008  11th Gen Intel(R) Core(TM) i5-1135G7 @ 2.40GHz  
n1    Guilherme  2/8  Windows-x64  4292   11th Gen Intel(R) Core(TM) i5-1135G7 @ 2.40GHz  
n0*   Guilherme  1/8  Windows-x64  18604  11th Gen Intel(R) Core(TM) i5-1135G7 @ 2.40GHz  
host  Guilherme       Windows-x64  20840  11th Gen Intel(R) Core(TM) i5-1135G7 @ 2.40GHz  

MPI Option Selected: intel
Selected system interconnect: default
-------------------------------------------------------------------------------------------

Cleanup script file is H:\\Meu Drive\\TCC\\Programming\\cnn-hypersonic\\pyFluent\\cleanup-fluent-Guilherme-20840.bat

> Fast-loading "C:\PROGRA~1\ANSYSI~1\v231\fluent\fluent23.1.0\\addons\afd\lib\hdfio.bin"
Done.

Reading from Guilherme:"H:\Meu Drive\TCC\Programming\cnn-hypersonic\pyFluent\caso.cas.h5" in NODE0 mode ...
  Reading mesh ...
       19790 cells,     1 cell zone  ...
          19790 mixed cells,  zone id: 2
       40054 faces,     4 face zones ...
          39081 2D interior faces,  zone id: 1
            477 2D pressure-far-field faces,  zone id: 5
            396 2D wall faces,  zone id: 7
            100 2D pressure-outlet faces,  zone id: 6
       20264 nodes,     1 node zone  ...
  Done.


Building...
     mesh
	distributing mesh
		parts........,
		faces........,
		nodes........,
		cells........,
        bandwidth reduction using Reverse Cuthill-McKee: 2470/72 = 34.3056
     materials,
     interface,
     domains,
	mixture
     zones,
	pressure-outlet
	airfoil
	pressure-far-field
	interior-air
	air
     parallel,
Done.

Writing Settings file "C:\Users\guilh\AppData\Local\Temp\15"...
	writing rp variables ... Done.
	writing domain variables ... Done.
	writing air (type fluid) (mixture) ... Done.
	writing interior-air (type interior) (mixture) ... Done.
	writing pressure-far-field (type pressure-far-field) (mixture) ... Done.
	writing airfoil (type wall) (mixture) ... Done.
	writing pressure-outlet (type pressure-outlet) (mixture) ... Done.
	writing zones map name-id ... Done.

Error: File "H:\Meu Drive\TCC\Programming\cnn-hypersonic\DataCFD\-3-AoA\5-WedgeAngles\meshFile.msh" not found!
Error Object: #f

Error: File "H:\Meu Drive\TCC\Programming\cnn-hypersonic\DataCFD\-3-AoA\5-WedgeAngles\meshFile.msh" not found!
Error Object: #f
invalid command [ok]

Writing Settings file "C:\Users\guilh\AppData\Local\Temp\16"...
	writing rp variables ... Done.
	writing domain variables ... Done.
	writing air (type fluid) (mixture) ... Done.
	writing interior-air (type interior) (mixture) ... Done.
	writing pressure-far-field (type pressure-far-field) (mixture) ... Done.
	writing airfoil (type wall) (mixture) ... Done.
	writing pressure-outlet (type pressure-outlet) (mixture) ... Done.
	writing zones map name-id ... Done.

Reading "H:\Meu Drive\TCC\Programming\cnn-hypersonic\DataCFD\-3-AoA\5-WedgeAngle\meshFile.msh"...

Buffering for file scan...


       Clearing partially read grid.
   19706 nodes.
     984 nodes.
   39922 2D interior faces, zone  1.
     488 2D pressure-far-field faces, zone  5.
     396 2D wall faces, zone  6.
     100 2D pressure-outlet faces, zone  7.
   20216 mixed cells, zone  2.

Building...
     mesh
	auto partitioning mesh by Metis (fast),
	distributing mesh
		parts........,
		faces........,
		nodes........,
		cells........,
        bandwidth reduction using Reverse Cuthill-McKee: 2527/61 = 41.4262
     materials,
     interface,
     domains,
     zones,
	pressure-outlet
	airfoil
	pressure-far-field
	air
	interior-air
     parallel,
Done.
Warning: Pressure far-field boundary condition can only be used with ideal gas law.
  Please change either the boundary condition type or enable ideal gas law.
  Solver cannot proceed until this is fixed.
	Warning: Pressure far-field boundary condition can only be used with ideal gas law.
  Please change either the boundary condition type or enable ideal gas law.
  Solver cannot proceed until this is fixed.
	
Reading Settings file "C:\Users\guilh\AppData\Local\Temp\16"...

Warning: Pressure far-field boundary condition can only be used with ideal gas law.
  Please change either the boundary condition type or enable ideal gas law.
  Solver cannot proceed until this is fixed.
	 Setting zone id of air to 2.
 Setting zone id of interior-air to 1.
 Setting zone id of pressure-far-field to 5.
 Setting zone id of airfoil to 7.
 Setting zone id of pressure-outlet to 6.
Done.

Setting air (mixture) ... Done.
Setting interior-air (mixture) ... Done.
Setting pressure-far-field (mixture) ... Done.
Setting airfoil (mixture) ... Done.
Setting pressure-outlet (mixture) ... Done.

solution
invalid command [solution]

> /solution
invalid command [solution]

> help

Type "?<command>" for help on a specific command.
Type "?" to enter help mode, and "q" to exit help mode.

The commands below are available in this menu.
Those followed by "*" are unavailable with the current settings.

adjoint/                                        results/*
close-fluent*                                   results/*
define/                                         server/
display/                                        setup/*
exit                                            setup/*
file/                                           simulation-reports/*
icing/*                                         solution/*
mesh/                                           solution/*
parallel/                                       solve/
parameters-&-customization/*                    surface/
parametric-study/*                              switch-to-meshing-mode*
plot/                                           turbo-post/*
preferences/                                    turbo-workflow/*
print-license-usage                             views/
report/

> solution/
invalid command [solution]

> mesh/

/mesh> help

Type "?<command>" for help on a specific command.
Type "?" to enter help mode, and "q" to exit help mode.

The commands below are available in this menu.
Those followed by "*" are unavailable with the current settings.

adapt/                                          reorder/
adjacency                                       repair-improve/
check                                           replace
check-before-solve?                             rotate
check-verbosity                                 scale
enhanced-orthogonal-quality?                    set-unit-system*
geometry/*                                      show-periodic-shadow-zones?
memory-usage                                    size-info
mesh-info                                       smooth-mesh
modify-zones/                                   surface-mesh/
polyhedra/*                                     swap-mesh-faces*
quality                                         translate
redistribute-boundary-layer*                    units*

/mesh> (cx-gui-do cx-activate-item "Ribbon*Frame1*Frame5(Solution)*Table1*Table3(Initialization)*PushButton5(Initialize)")

Initialize using the hybrid initialization method.

Checking case topology... 
-This case has farfield bc 
-Case will be initialized with constant pressure

	iter		scalar-0

	1		1.000000e+00
	2		3.705751e-05
	3		5.034735e-06
	4		9.092143e-07
	5		1.725323e-07
	6		3.926499e-08
	7		8.966879e-09
	8		2.356845e-09
	9		5.939555e-10
	10		1.676728e-10

Hybrid initialization is done.

adapt/                                          reorder/
adjacency                                       repair-improve/
check                                           replace
check-before-solve?                             rotate
check-verbosity                                 scale
enhanced-orthogonal-quality?                    show-periodic-shadow-zones?
memory-usage                                    size-info
mesh-info                                       smooth-mesh
modify-zones/                                   surface-mesh/
quality                                         translate

/mesh> cd
invalid command [cd]

/mesh> cd invalid command [cd]
;;

/mesh> /

/mesh/>  
adjoint/                mesh/                   report/
define/                 parallel/               server/
display/                plot/                   solve/
exit                    preferences/            surface/
file/                   print-license-usage     views/

/mesh/>   
adjoint/                mesh/                   report/
define/                 parallel/               server/
display/                plot/                   solve/
exit                    preferences/            surface/
file/                   print-license-usage     views/

/mesh/> .
Journal file names [()] 
Journal file names [()] 
Journal file names [()] 
Journal file names [()] ,,
Journal file names [()] l
Journal file names [()] cancel
Journal file names [()] Done.

/mesh/> Done.

/mesh/> Done.

/mesh/> Done.

/mesh/> Done.

/mesh/> Done.

/mesh/> result/
invalid command [result]

/mesh/> //

/mesh///> //////////

/mesh/////////////> a

/mesh//////////////adjoint> help

Type "?<command>" for help on a specific command.
Type "?" to enter help mode, and "q" to exit help mode.

The commands below are available in this menu.
Those followed by "*" are unavailable with the current settings.


Adjoint Solver is activated.
controls/               monitors/               postprocess-options/
design-tool/            morphing/*              reporting/
expert/                 multi-objective/*       run/
geometry/               observable/             utilities/
methods/                optimizer/

/mesh//////////////adjoint> q

/mesh/////////////> q

/mesh///> q

/mesh/> q

/mesh> q

> q
Use "exit" to leave the main menu.

> help

Type "?<command>" for help on a specific command.
Type "?" to enter help mode, and "q" to exit help mode.

The commands below are available in this menu.
Those followed by "*" are unavailable with the current settings.

adjoint/                                        results/*
close-fluent*                                   results/*
define/                                         server/
display/                                        setup/*
exit                                            setup/*
file/                                           simulation-reports/*
icing/*                                         solution/*
mesh/                                           solution/*
parallel/                                       solve/
parameters-&-customization/*                    surface/
parametric-study/*                              switch-to-meshing-mode*
plot/                                           turbo-post/*
preferences/                                    turbo-workflow/*
print-license-usage                             views/
report/

> mesh/

/mesh> help

Type "?<command>" for help on a specific command.
Type "?" to enter help mode, and "q" to exit help mode.

The commands below are available in this menu.
Those followed by "*" are unavailable with the current settings.

adapt/                                          reorder/
adjacency                                       repair-improve/
check                                           replace
check-before-solve?                             rotate
check-verbosity                                 scale
enhanced-orthogonal-quality?                    set-unit-system*
geometry/*                                      show-periodic-shadow-zones?
memory-usage                                    size-info
mesh-info                                       smooth-mesh
modify-zones/                                   surface-mesh/
polyhedra/*                                     swap-mesh-faces*
quality                                         translate
redistribute-boundary-layer*                    units*

/mesh> check

 Domain Extents:
   x-coordinate: min (m) = -5.000000e-01, max (m) = 1.500000e+00
   y-coordinate: min (m) = -5.000000e-01, max (m) = 5.000000e-01
 Volume statistics:
   minimum volume (m3): 7.522675e-06
   maximum volume (m3): 1.362463e-04
     total volume (m3): 1.956256e+00
 Face area statistics:
   minimum face area (m2): 2.106201e-03
   maximum face area (m2): 1.419788e-02
 Checking mesh.....................................
Done.
 
/mesh> q

> help

Type "?<command>" for help on a specific command.
Type "?" to enter help mode, and "q" to exit help mode.

The commands below are available in this menu.
Those followed by "*" are unavailable with the current settings.

adjoint/                                        results/*
close-fluent*                                   results/*
define/                                         server/
display/                                        setup/*
exit                                            setup/*
file/                                           simulation-reports/*
icing/*                                         solution/*
mesh/                                           solution/*
parallel/                                       solve/
parameters-&-customization/*                    surface/
parametric-study/*                              switch-to-meshing-mode*
plot/                                           turbo-post/*
preferences/                                    turbo-workflow/*
print-license-usage                             views/
report/

> define

/define> help

Type "?<command>" for help on a specific command.
Type "?" to enter help mode, and "q" to exit help mode.

The commands below are available in this menu.
Those followed by "*" are unavailable with the current settings.

beta-feature-access                             overset-interfaces/
boundary-conditions/                            parameters/
curvilinear-coordinate-system/*                 periodic-conditions/*
custom-field-functions/                         phases/*
dynamic-mesh/                                   physics*
enable-mesh-morpher-optimizer?                  profiles/
gap-model/*                                     reference-frames/
injections/                                     set-unit-system
materials/                                      solution-strategy/
mesh-interfaces/                                spectral/*
mixing-planes/                                  turbo-model/*
models/                                         units
named-expressions/                              user-defined/
operating-conditions/                           virtual-boundary/*

/define> named-expressions

/define/named-expressions> help

Type "?<command>" for help on a specific command.
Type "?" to enter help mode, and "q" to exit help mode.

The commands below are available in this menu.
Those followed by "*" are unavailable with the current settings.

add                     delete*                 import-from-tsv
compute*                edit*                   list*
copy*                   export-to-tsv*          list-properties*

/define/named-expressions> list
invalid command [list]

/define/named-expressions> cd
invalid command [cd]

/define/named-expressions> q

/define> q

> file

/file> herlp
invalid command [herlp]

/file> help

Type "?<command>" for help on a specific command.
Type "?" to enter help mode, and "q" to exit help mode.

The commands below are available in this menu.
Those followed by "*" are unavailable with the current settings.

async-optimize?*                                replace-mesh
auto-save/                                      set-batch-options
binary-legacy-files?                            set-err-on-inval-cmd
cff-files?                                      set-idle-timeout
cffio-options/                                  set-target-reference-frame-for-write-profiles*
close-without-save*                             set-tui-version
confirm-overwrite?                              show-configuration
data-file-options*                              single-precision-coordinates?*
define-macro                                    solution-files/
em-mapping/*                                    start-journal
execute-macro                                   start-transcript
export-to-cfd-post                              stop-journal
export/                                         stop-macro
fsi/                                            stop-transcript
import/                                         sync-workbench*
interpolate/                                    table-manager/
load-act-tool                                   transient-export/
parametric-project/*                            write-boundary-mesh
project[beta]/*                                 write-case
read-case                                       write-case-data
read-case-data                                  write-circumferential-averaged-profile*
read-case-info                                  write-cleanup-script
read-case-settings*                             write-currently-defined-profiles*
read-data                                       write-data
read-field-functions                            write-fan-profile
read-injections                                 write-field-functions
read-isat-table*                                write-flamelet*
read-journal                                    write-injections
read-macros                                     write-isat-table*
read-pdf*                                       write-macros
read-profile                                    write-merge-profiles
read-rays*                                      write-pdat?
read-settings                                   write-pdf*
read-surface-clusters*                          write-profile
read-transient-table                            write-selected-defined-profiles*
read-viewfactors*                               write-settings
reload-setup*

/file> replace-mesh
Mesh or Case Filename ["H:\Meu Drive\TCC\Programming\cnn-hypersonic\DataCFD\-3-AoA\5-WedgeAngle\meshFile.msh"] 
The current case and data have not been saved.
OK to discard? [cancel] ok

Writing Settings file "C:\Users\guilh\AppData\Local\Temp\17"...
	writing rp variables ... Done.
	writing domain variables ... Done.
	writing air (type fluid) (mixture) ... Done.
	writing interior-air (type interior) (mixture) ... Done.
	writing pressure-far-field (type pressure-far-field) (mixture) ... Done.
	writing airfoil (type wall) (mixture) ... Done.
	writing pressure-outlet (type pressure-outlet) (mixture) ... Done.
	writing zones map name-id ... Done.

Reading "H:\Meu Drive\TCC\Programming\cnn-hypersonic\DataCFD\-3-AoA\5-WedgeAngle\meshFile.msh"...

Buffering for file scan...


       Clearing partially read grid.
   19706 nodes.
     984 nodes.
   39922 2D interior faces, zone  1.
     488 2D pressure-far-field faces, zone  5.
     396 2D wall faces, zone  6.
     100 2D pressure-outlet faces, zone  7.
   20216 mixed cells, zone  2.

Building...
     mesh
	auto partitioning mesh by Metis (fast),
	distributing mesh
		parts........,
		faces........,
		nodes........,
		cells........,
        bandwidth reduction using Reverse Cuthill-McKee: 2527/61 = 41.4262
     materials,
     interface,
     domains,
     zones,
	pressure-outlet
	airfoil
	pressure-far-field
	air
	interior-air
     parallel,
Done.
Warning: Pressure far-field boundary condition can only be used with ideal gas law.
  Please change either the boundary condition type or enable ideal gas law.
  Solver cannot proceed until this is fixed.
	Warning: Pressure far-field boundary condition can only be used with ideal gas law.
  Please change either the boundary condition type or enable ideal gas law.
  Solver cannot proceed until this is fixed.
	
Reading Settings file "C:\Users\guilh\AppData\Local\Temp\17"...

Warning: Pressure far-field boundary condition can only be used with ideal gas law.
  Please change either the boundary condition type or enable ideal gas law.
  Solver cannot proceed until this is fixed.
	 Setting zone id of air to 2.
 Setting zone id of interior-air to 1.
 Setting zone id of pressure-far-field to 5.
 Setting zone id of airfoil to 7.
 Setting zone id of pressure-outlet to 6.
Done.

Adjoint Solver is activated.

Setting air (mixture) ... Done.
Setting interior-air (mixture) ... Done.
Setting pressure-far-field (mixture) ... Done.
Setting airfoil (mixture) ... Done.
Setting pressure-outlet (mixture) ... Done.


/file> (cx-use-window-id 51)
(handle-key "/")
(cx-use-window-id 51)
(handle-key "")
q

> help

Type "?<command>" for help on a specific command.
Type "?" to enter help mode, and "q" to exit help mode.

The commands below are available in this menu.
Those followed by "*" are unavailable with the current settings.

adjoint/                                        results/*
close-fluent*                                   results/*
define/                                         server/
display/                                        setup/*
exit                                            setup/*
file/                                           simulation-reports/*
icing/*                                         solution/*
mesh/                                           solution/*
parallel/                                       solve/
parameters-&-customization/*                    surface/
parametric-study/*                              switch-to-meshing-mode*
plot/                                           turbo-post/*
preferences/                                    turbo-workflow/*
print-license-usage                             views/
report/

> define

/define> help

Type "?<command>" for help on a specific command.
Type "?" to enter help mode, and "q" to exit help mode.

The commands below are available in this menu.
Those followed by "*" are unavailable with the current settings.

beta-feature-access                             overset-interfaces/
boundary-conditions/                            parameters/
curvilinear-coordinate-system/*                 periodic-conditions/*
custom-field-functions/                         phases/*
dynamic-mesh/                                   physics*
enable-mesh-morpher-optimizer?                  profiles/
gap-model/*                                     reference-frames/
injections/                                     set-unit-system
materials/                                      solution-strategy/
mesh-interfaces/                                spectral/*
mixing-planes/                                  turbo-model/*
models/                                         units
named-expressions/                              user-defined/
operating-conditions/                           virtual-boundary/*

/define> boundary-conditions

/define/boundary-conditions> help

Type "?<command>" for help on a specific command.
Type "?" to enter help mode, and "q" to exit help mode.

The commands below are available in this menu.
Those followed by "*" are unavailable with the current settings.

advanced/                                       openchannel-threads*
axis*                                           outflow*
bc-settings/                                    outlet-vent*
copy-bc                                         overset*
degassing*                                      perforated-walls/
exhaust-fan*                                    periodic*
fan*                                            porous-jump*
fluid                                           pressure-far-field
geometry*                                       pressure-inlet*
impedance-data-fitting/                         pressure-outlet
inlet-vent*                                     radiator*
intake-fan*                                     rans-les-interface*
interface*                                      recirculation-inlet*
interior*                                       recirculation-outlet*
knudsen-number-calculator                       rename-zone/
list-zones                                      set/
mass-flow-inlet*                                shadow*
mass-flow-outlet*                               solid*
modify-zones/                                   symmetry*
network*                                        target-mass-flow-rate-settings/
network-end*                                    velocity-inlet*
non-overlapping-zone-name*                      wall
non-reflecting-bc/                              zone-name
open-channel-wave-settings*                     zone-type

/define/boundary-conditions> fluid
(air)
zone id/name [air] air
material-name [air]: Change current value? [no] air
Please answer y[es] or n[o].
material-name [air]: Change current value? [no] 
Specify source terms? [no] 
Specify fixed values? [no] 
Frame Motion? [no] 
Use Profile for Reference Frame X-Origin of Rotation-Axis? [no] 
Reference Frame X-Origin of Rotation-Axis (constant or expresssion) (in [m]) [0] 
Use Profile for Reference Frame Y-Origin of Rotation-Axis? [no] 
Reference Frame Y-Origin of Rotation-Axis (constant or expresssion) (in [m]) [0] 
Mesh Motion? [no] 
Enter yes or no to continue [no] 
Laminar zone? [no] 
Porous zone? [no] 

/define/boundary-conditions> (cx-gui-do cx-set-list-tree-selections "NavigationPane*Frame2*Table1*List_Tree2" (list "Setup|Materials|Fluid|air"))
(cx-gui-do cx-set-list-tree-selections "NavigationPane*Frame2*Table1*List_Tree2" (list "Setup|Materials|Fluid|air"))
(cx-gui-do cx-activate-item "NavigationPane*Frame2*Table1*List_Tree2")
(cx-gui-do cx-set-list-tree-selections "NavigationPane*Frame2*Table1*List_Tree2" (list "Setup|Materials|Fluid|air"))
(cx-gui-do cx-activate-item "Create/Edit Materials*PanelButtons*PushButton3(Change/Create)")
(cx-gui-do cx-activate-item "Create/Edit Materials*PanelButtons*PushButton1(Close)")
q

/define> q

> q
Use "exit" to leave the main menu.

> help

Type "?<command>" for help on a specific command.
Type "?" to enter help mode, and "q" to exit help mode.

The commands below are available in this menu.
Those followed by "*" are unavailable with the current settings.

adjoint/                                        results/*
close-fluent*                                   results/*
define/                                         server/
display/                                        setup/*
exit                                            setup/*
file/                                           simulation-reports/*
icing/*                                         solution/*
mesh/                                           solution/*
parallel/                                       solve/
parameters-&-customization/*                    surface/
parametric-study/*                              switch-to-meshing-mode*
plot/                                           turbo-post/*
preferences/                                    turbo-workflow/*
print-license-usage                             views/
report/

> mesh/

/mesh> help

Type "?<command>" for help on a specific command.
Type "?" to enter help mode, and "q" to exit help mode.

The commands below are available in this menu.
Those followed by "*" are unavailable with the current settings.

adapt/                                          reorder/
adjacency                                       repair-improve/
check                                           replace
check-before-solve?                             rotate
check-verbosity                                 scale
enhanced-orthogonal-quality?                    set-unit-system*
geometry/*                                      show-periodic-shadow-zones?
memory-usage                                    size-info
mesh-info                                       smooth-mesh
modify-zones/                                   surface-mesh/
polyhedra/*                                     swap-mesh-faces*
quality                                         translate
redistribute-boundary-layer*                    units*

/mesh> q

> display/

/display> help

Type "?<command>" for help on a specific command.
Type "?" to enter help mode, and "q" to exit help mode.

The commands below are available in this menu.
Those followed by "*" are unavailable with the current settings.

add-custom-vector*                              pdf-data/*
annotate                                        profile*
clear-annotations                               re-render
close-window                                    re-scale
close-window-by-name                            reacting-channel-curves*
contour*                                        save-picture
define/*                                        set-list-tree-separator
display-custom-vector*                          set-window
display-states/                                 set-window-by-name
embedded-windows/                               set/
flamelet-data/*                                 surface-cells
graphics-window-layout*                         surface-mesh
hsf-file                                        surface/
inverse-dft/*                                   switch-to-post-processing-volume*
mesh*                                           switch-to-primary-volume*
mesh-outline*                                   update-layout
mesh-partition-boundary                         update-scene/
multigrid-coarsening*                           vector*
objects/*                                       velocity-vector*
open-window                                     view-sync/*
particle-tracks/*                               views/
path-lines/*                                    zone-mesh

/display> mesh

/display> surface-mesh
(2 0 1)
surface(1) [2] 11
Invalid surface.
surface(1) [2] 2 0 1
surface(4) [()] 

/display> 
annotate                open-window             surface-cells
clear-annotations       re-render               surface-mesh
close-window            re-scale                surface/
close-window-by-name    save-picture            update-layout
display-states/         set-list-tree-separator update-scene/
embedded-windows/       set-window              views/
hsf-file                set-window-by-name      zone-mesh
mesh-partition-boundary set/

/display> surface-mesh
(2 0 1)
surface(1) [2] 1
surface(2) [0] 2
surface(3) [1] 3
surface(4) [()] 

/display> 
annotate                open-window             surface-cells
clear-annotations       re-render               surface-mesh
close-window            re-scale                surface/
close-window-by-name    save-picture            update-layout
display-states/         set-list-tree-separator update-scene/
embedded-windows/       set-window              views/
hsf-file                set-window-by-name      zone-mesh
mesh-partition-boundary set/

/display> surface

/display/surface> help

Type "?<command>" for help on a specific command.
Type "?" to enter help mode, and "q" to exit help mode.

The commands below are available in this menu.
Those followed by "*" are unavailable with the current settings.

circle-slice                                    multiple-zone-surfaces
closest-point-search                            partition-surface
cone-slice*                                     plane*
create-imprint-surface                          plane-slice*
delete-surface                                  plane-surface*
edit-surface                                    point-array
ellipsoid-slice*                                point-surface
expression-volume*                              post-processing-volume/
group-surfaces                                  quadric-slice
iso-clip*                                       query/*
iso-surface*                                    rake-surface
line-slice                                      rename-surface
line-surface                                    reset-zone-surfaces
list-surfaces                                   sphere-slice*
mouse-line                                      structural-point-surface*
mouse-plane*                                    surface-cells
mouse-rake                                      transform-surface
multiple-iso-surfaces*                          ungroup-surface
multiple-plane-surfaces*                        zone-surface

/display/surface> 
circle-slice            list-surfaces           quadric-slice
closest-point-search    mouse-line              rake-surface
create-imprint-surface  mouse-rake              rename-surface
delete-surface          multiple-zone-surfaces  reset-zone-surfaces
edit-surface            partition-surface       surface-cells
group-surfaces          point-array             transform-surface
line-slice              point-surface           ungroup-surface
line-surface            post-processing-volume/ zone-surface

/display/surface> q

/display> q

> help

Type "?<command>" for help on a specific command.
Type "?" to enter help mode, and "q" to exit help mode.

The commands below are available in this menu.
Those followed by "*" are unavailable with the current settings.

adjoint/                                        results/*
close-fluent*                                   results/*
define/                                         server/
display/                                        setup/*
exit                                            setup/*
file/                                           simulation-reports/*
icing/*                                         solution/*
mesh/                                           solution/*
parallel/                                       solve/
parameters-&-customization/*                    surface/
parametric-study/*                              switch-to-meshing-mode*
plot/                                           turbo-post/*
preferences/                                    turbo-workflow/*
print-license-usage                             views/
report/

> solution/
invalid command [solution]

> setup/
invalid command [setup]

> setup
invalid command [setup]

> icing
invalid command [icing]

> close-fluent
invalid command [close-fluent]

> solve

/solve> help

Type "?<command>" for help on a specific command.
Type "?" to enter help mode, and "q" to exit help mode.

The commands below are available in this menu.
Those followed by "*" are unavailable with the current settings.

animate/                                        mesh-motion*
cell-register-operations/*                      monitors/
cell-registers/                                 multistage-time-iterate*
convergence-conditions/                         patch*
dpm-update*                                     report-definitions/
dual-time-iterate*                              report-files/
execute-commands/                               report-plots/
initialize/                                     set/
iterate                                         update-physical-time*
iterate-steady-2way-fsi*

/solve> initialize

/solve/initialize> help

Type "?<command>" for help on a specific command.
Type "?" to enter help mode, and "q" to exit help mode.

The commands below are available in this menu.
Those followed by "*" are unavailable with the current settings.

compute-defaults/                               open-channel-auto-init*
dpm-reset*                                      patch*
fmg-initialization*                             reference-frame
hyb-initialization                              repair-wall-distance
init-acoustics-options*                         set-defaults/
init-flow-statistics                            set-fmg-initialization*
init-turb-vel-fluctuations*                     set-fmg-options/
initialize-flow                                 set-hyb-initialization
levelset-auto-init*                             show-iterations-sampled*
list-defaults                                   show-time-sampled*
lwf-initialization*                             vof-patch-smooth-options/*
mp-localized-turb-init/*

/solve/initialize> hyb-initialization

Initialize using the hybrid initialization method.

Checking case topology... 
-This case has farfield bc 
-Case will be initialized with constant pressure

	iter		scalar-0

	1		1.000000e+00
	2		3.705751e-05
	3		5.034735e-06
	4		9.092143e-07
	5		1.725323e-07
	6		3.926499e-08
	7		8.966879e-09
	8		2.356845e-09
	9		5.939555e-10
	10		1.676728e-10

Hybrid initialization is done.

/solve/initialize> 
Initialize using the hybrid initialization method.

Checking case topology... 
-This case has farfield bc 
-Case will be initialized with constant pressure

	iter		scalar-0

	1		1.000000e+00
	2		3.705751e-05
	3		5.034735e-06
	4		9.092143e-07
	5		1.725323e-07
	6		3.926499e-08
	7		8.966879e-09
	8		2.356845e-09
	9		5.939555e-10
	10		1.676728e-10

Hybrid initialization is done.
solve
invalid command [solve]

/solve/initialize> help

Type "?<command>" for help on a specific command.
Type "?" to enter help mode, and "q" to exit help mode.

The commands below are available in this menu.
Those followed by "*" are unavailable with the current settings.

compute-defaults/                               open-channel-auto-init*
dpm-reset*                                      patch*
fmg-initialization                              reference-frame
hyb-initialization                              repair-wall-distance
init-acoustics-options*                         set-defaults/
init-flow-statistics                            set-fmg-initialization
init-turb-vel-fluctuations*                     set-fmg-options/
initialize-flow                                 set-hyb-initialization
levelset-auto-init*                             show-iterations-sampled*
list-defaults                                   show-time-sampled*
lwf-initialization*                             vof-patch-smooth-options/*
mp-localized-turb-init/*

/solve/initialize> q

/solve> help

Type "?<command>" for help on a specific command.
Type "?" to enter help mode, and "q" to exit help mode.

The commands below are available in this menu.
Those followed by "*" are unavailable with the current settings.

animate/                                        mesh-motion*
cell-register-operations/*                      monitors/
cell-registers/                                 multistage-time-iterate*
convergence-conditions/                         patch
dpm-update*                                     report-definitions/
dual-time-iterate*                              report-files/
execute-commands/                               report-plots/
initialize/                                     set/
iterate                                         update-physical-time*
iterate-steady-2way-fsi*

/solve> iterate
Number of iterations [2000] 

  iter  continuity  x-velocity  y-velocity      energy           k       omega     time/iter
     1  1.0000e+00  1.0000e+00  1.0000e+00  1.0000e+00  1.0009e-02  2.8467e-02  0:00:00 1999
     2  8.8208e-01  9.4699e-01  7.0880e-01  8.3809e-01  6.0820e-03  1.0932e-02  0:33:18 1998
     3  9.9345e-01  1.0000e+00  5.8801e-01  8.8363e-01  5.7809e-03  1.0424e-02  0:26:38 1997
     4  1.0000e+00  1.0000e+00  5.4252e-01  9.4372e-01  5.6640e-03  1.0690e-02  0:21:17 1996
     5  1.0000e+00  1.0000e+00  5.2996e-01  1.0000e+00  5.5283e-03  1.1060e-02  0:17:01 1995
     6  1.1471e+00  1.1174e+00  5.3001e-01  1.1119e+00  5.3379e-03  1.1419e-02  0:13:37 1994
     7  1.3131e+00  1.2451e+00  5.4132e-01  1.2490e+00  5.1025e-03  1.1751e-02  0:10:53 1993
     8  1.4863e+00  1.3764e+00  5.5855e-01  1.4013e+00  4.8313e-03  1.2079e-02  0:08:42 1992
     9  1.6599e+00  1.5064e+00  5.7741e-01  1.5574e+00  4.5395e-03  1.2389e-02  0:06:58 1991
    10  1.8316e+00  1.6330e+00  5.9625e-01  1.7149e+00  4.2500e-03  1.2703e-02  0:05:34 1990
    11  1.9987e+00  1.7539e+00  6.1345e-01  1.8680e+00  3.9855e-03  1.3014e-02  0:11:05 1989

  iter  continuity  x-velocity  y-velocity      energy           k       omega     time/iter
    12  2.1574e+00  1.8671e+00  6.2879e-01  2.0142e+00  3.7875e-03  1.3317e-02  0:08:52 1988
    13  2.3069e+00  1.9719e+00  6.4175e-01  2.1522e+00  3.6698e-03  1.3612e-02  0:07:05 1987
    14  2.4463e+00  2.0675e+00  6.5123e-01  2.2811e+00  3.6527e-03  1.3902e-02  0:05:40 1986
    15  2.5743e+00  2.1530e+00  6.5725e-01  2.3993e+00  3.7265e-03  1.4203e-02  0:04:32 1985
    16  2.6932e+00  2.2292e+00  6.6122e-01  2.5080e+00  3.8605e-03  1.4503e-02  0:03:37 1984
    17  2.8040e+00  2.2966e+00  6.6304e-01  2.6075e+00  4.0190e-03  1.4827e-02  0:02:54 1983
    18  2.9072e+00  2.3557e+00  6.6307e-01  2.6986e+00  4.1883e-03  1.5212e-02  0:02:19 1982
    19  3.0021e+00  2.4071e+00  6.6135e-01  2.7812e+00  4.3505e-03  1.5642e-02  0:01:51 1981
    20  3.0914e+00  2.4528e+00  6.5808e-01  2.8581e+00  4.4827e-03  1.6125e-02  0:01:29 1980
    21  3.1767e+00  2.4946e+00  6.5378e-01  2.9319e+00  4.5826e-03  1.6657e-02  0:01:11 1979
    22  3.2591e+00  2.5333e+00  6.4848e-01  3.0038e+00  4.6339e-03  1.7236e-02  0:00:57 1978

  iter  continuity  x-velocity  y-velocity      energy           k       omega     time/iter
    23  3.3379e+00  2.5695e+00  6.4321e-01  3.0736e+00  4.6415e-03  1.7854e-02  0:07:21 1977
    24  3.4110e+00  2.6021e+00  6.3889e-01  3.1395e+00  4.6324e-03  1.8498e-02  0:05:52 1976
    25  3.4795e+00  2.6330e+00  6.3446e-01  3.2025e+00  4.5922e-03  1.9170e-02  0:04:42 1975
    26  3.5427e+00  2.6625e+00  6.3315e-01  3.2624e+00  4.5085e-03  1.9848e-02  0:03:45 1974
    27  3.6002e+00  2.6899e+00  6.3455e-01  3.3192e+00  4.4098e-03  2.0498e-02  0:03:00 1973
    28  3.6520e+00  2.7157e+00  6.3775e-01  3.3727e+00  4.2836e-03  2.1116e-02  0:02:24 1972
    29  3.6925e+00  2.7346e+00  6.4414e-01  3.4173e+00  4.1487e-03  2.1680e-02  0:01:55 1971
    30  3.7218e+00  2.7468e+00  6.5501e-01  3.4525e+00  4.0245e-03  2.2167e-02  0:01:32 1970
    31  3.7443e+00  2.7545e+00  6.7089e-01  3.4817e+00  3.8854e-03  2.2553e-02  0:01:14 1969
    32  3.7599e+00  2.7561e+00  6.8987e-01  3.5050e+00  3.7474e-03  2.2839e-02  0:00:59 1968
    33  3.7658e+00  2.7500e+00  7.0705e-01  3.5182e+00  3.6187e-03  2.2995e-02  0:00:47 1967

  iter  continuity  x-velocity  y-velocity      energy           k       omega     time/iter
    34  3.7669e+00  2.7381e+00  7.2174e-01  3.5262e+00  3.5046e-03  2.2999e-02  0:00:38 1966
    35  3.7635e+00  2.7205e+00  7.3367e-01  3.5289e+00  3.4084e-03  2.2870e-02  0:07:03 1965
    36  3.7572e+00  2.6995e+00  7.4241e-01  3.5280e+00  3.3256e-03  2.2618e-02  0:05:38 1964
    37  3.7490e+00  2.6767e+00  7.4732e-01  3.5242e+00  3.2529e-03  2.2249e-02  0:04:31 1963
    38  3.7373e+00  2.6512e+00  7.4978e-01  3.5161e+00  3.1872e-03  2.1770e-02  0:03:36 1962
    39  3.7177e+00  2.6209e+00  7.4872e-01  3.4990e+00  3.1322e-03  2.1212e-02  0:02:53 1961
    40  3.6876e+00  2.5850e+00  7.4460e-01  3.4708e+00  3.0818e-03  2.0584e-02  0:02:18 1960
    41  3.6515e+00  2.5449e+00  7.3677e-01  3.4362e+00  3.0345e-03  1.9908e-02  0:01:51 1959
    42  3.6103e+00  2.5023e+00  7.2549e-01  3.3966e+00  2.9915e-03  1.9198e-02  0:01:28 1958
    43  3.5593e+00  2.4549e+00  7.1162e-01  3.3464e+00  2.9538e-03  1.8465e-02  0:01:11 1957
    44  3.4977e+00  2.4022e+00  6.9465e-01  3.2856e+00  2.9208e-03  1.7712e-02  0:00:57 1956

  iter  continuity  x-velocity  y-velocity      energy           k       omega     time/iter
    45  3.4272e+00  2.3454e+00  6.7556e-01  3.2161e+00  2.8885e-03  1.6954e-02  0:00:45 1955
    46  3.3502e+00  2.2861e+00  6.5576e-01  3.1406e+00  2.8611e-03  1.6213e-02  0:00:36 1954
    47  3.2711e+00  2.2269e+00  6.3734e-01  3.0626e+00  2.8355e-03  1.5497e-02  0:00:29 1953
    48  3.1919e+00  2.1686e+00  6.1992e-01  2.9847e+00  2.8105e-03  1.4819e-02  0:06:54 1952
    49  3.1127e+00  2.1111e+00  6.0231e-01  2.9068e+00  2.7865e-03  1.4188e-02  0:05:31 1951
    50  3.0344e+00  2.0546e+00  5.8474e-01  2.8299e+00  2.7634e-03  1.3592e-02  0:04:24 1950
    51  2.9590e+00  2.0005e+00  5.6862e-01  2.7560e+00  2.7399e-03  1.3029e-02  0:03:31 1949
    52  2.8868e+00  1.9490e+00  5.5336e-01  2.6849e+00  2.7175e-03  1.2498e-02  0:02:49 1948
    53  2.8190e+00  1.9008e+00  5.3904e-01  2.6178e+00  2.6967e-03  1.2001e-02  0:02:15 1947
    54  2.7561e+00  1.8560e+00  5.2562e-01  2.5554e+00  2.6773e-03  1.1543e-02  0:01:48 1946
    55  2.6968e+00  1.8137e+00  5.1277e-01  2.4967e+00  2.6571e-03  1.1121e-02  0:01:26 1945

  iter  continuity  x-velocity  y-velocity      energy           k       omega     time/iter
    56  2.6408e+00  1.7741e+00  4.9998e-01  2.4417e+00  2.6349e-03  1.0736e-02  0:01:09 1944
    57  2.5875e+00  1.7365e+00  4.8748e-01  2.3896e+00  2.6132e-03  1.0387e-02  0:00:55 1943
    58  2.5366e+00  1.7010e+00  4.7562e-01  2.3405e+00  2.5908e-03  1.0073e-02  0:00:44 1942
    59  2.4887e+00  1.6677e+00  4.6418e-01  2.2945e+00  2.5697e-03  9.7843e-03  0:00:35 1941
    60  2.4434e+00  1.6365e+00  4.5306e-01  2.2512e+00  2.5505e-03  9.5171e-03  0:00:28 1940
    61  2.4004e+00  1.6069e+00  4.4236e-01  2.2102e+00  2.5333e-03  9.2672e-03  0:00:23 1939
    62  2.3607e+00  1.5798e+00  4.3270e-01  2.1725e+00  2.5157e-03  9.0306e-03  0:06:46 1938
    63  2.3241e+00  1.5548e+00  4.2387e-01  2.1377e+00  2.4985e-03  8.8116e-03  0:05:24 1937
    64  2.2905e+00  1.5317e+00  4.1600e-01  2.1058e+00  2.4818e-03  8.6070e-03  0:04:19 1936
    65  2.2593e+00  1.5104e+00  4.0831e-01  2.0764e+00  2.4645e-03  8.4109e-03  0:03:27 1935
    66  2.2297e+00  1.4902e+00  4.0190e-01  2.0487e+00  2.4464e-03  8.2213e-03  0:02:46 1934
Done.

/solve> 
  iter  continuity  x-velocity  y-velocity      energy           k       omega     time/iter
    66  2.2297e+00  1.4902e+00  4.0190e-01  2.0487e+00  2.4464e-03  8.2213e-03  0:00:09  100
    67  2.2046e+00  1.4729e+00  3.9598e-01  2.0252e+00  2.4288e-03  8.0401e-03  0:00:07   99
    68  2.1827e+00  1.4577e+00  3.9098e-01  2.0046e+00  2.4121e-03  7.8680e-03  0:00:05   98
    69  2.1616e+00  1.4430e+00  3.8602e-01  1.9849e+00  2.3962e-03  7.7039e-03  0:00:04   97
    70  2.1416e+00  1.4290e+00  3.8115e-01  1.9664e+00  2.3799e-03  7.5467e-03  0:00:03   96
    71  2.1219e+00  1.4154e+00  3.7642e-01  1.9483e+00  2.3631e-03  7.3928e-03  0:00:03   95
    72  2.1031e+00  1.4023e+00  3.7205e-01  1.9310e+00  2.3464e-03  7.2435e-03  0:00:02   94
    73  2.0856e+00  1.3901e+00  3.6811e-01  1.9151e+00  2.3295e-03  7.0982e-03  0:00:02   93
    74  2.0685e+00  1.3782e+00  3.6446e-01  1.8995e+00  2.3126e-03  6.9564e-03  0:00:01   92
    75  2.0511e+00  1.3662e+00  3.6091e-01  1.8838e+00  2.2971e-03  6.8173e-03  0:00:01   91
    76  2.0346e+00  1.3548e+00  3.5760e-01  1.8689e+00  2.2818e-03  6.6796e-03  0:00:01   90

  iter  continuity  x-velocity  y-velocity      energy           k       omega     time/iter
    77  2.0179e+00  1.3436e+00  3.5422e-01  1.8541e+00  2.2672e-03  6.5467e-03  0:00:01   89
    78  2.0014e+00  1.3326e+00  3.5074e-01  1.8394e+00  2.2524e-03  6.4178e-03  0:00:18   88
    79  1.9851e+00  1.3219e+00  3.4728e-01  1.8250e+00  2.2372e-03  6.2942e-03  0:00:14   87
    80  1.9685e+00  1.3112e+00  3.4372e-01  1.8105e+00  2.2219e-03  6.1725e-03  0:00:11   86
    81  1.9528e+00  1.3010e+00  3.4033e-01  1.7967e+00  2.2068e-03  6.0509e-03  0:00:09   85
    82  1.9374e+00  1.2911e+00  3.3706e-01  1.7832e+00  2.1928e-03  5.9332e-03  0:00:07   84
    83  1.9224e+00  1.2813e+00  3.3383e-01  1.7698e+00  2.1795e-03  5.8188e-03  0:00:06   83
    84  1.9077e+00  1.2718e+00  3.3059e-01  1.7567e+00  2.1657e-03  5.7103e-03  0:00:04   82
    85  1.8933e+00  1.2625e+00  3.2740e-01  1.7439e+00  2.1514e-03  5.6114e-03  0:00:03   81
    86  1.8794e+00  1.2535e+00  3.2435e-01  1.7314e+00  2.1372e-03  5.5192e-03  0:00:03   80
    87  1.8661e+00  1.2448e+00  3.2147e-01  1.7194e+00  2.1232e-03  5.4285e-03  0:00:02   79

  iter  continuity  x-velocity  y-velocity      energy           k       omega     time/iter
    88  1.8528e+00  1.2362e+00  3.1871e-01  1.7073e+00  2.1092e-03  5.3427e-03  0:00:02   78
    89  1.8398e+00  1.2276e+00  3.1598e-01  1.6955e+00  2.0953e-03  5.2597e-03  0:00:01   77
    90  1.8272e+00  1.2195e+00  3.1330e-01  1.6841e+00  2.0827e-03  5.1807e-03  0:00:16   76
    91  1.8149e+00  1.2114e+00  3.1074e-01  1.6729e+00  2.0703e-03  5.1054e-03  0:00:13   75
    92  1.8031e+00  1.2037e+00  3.0825e-01  1.6622e+00  2.0582e-03  5.0312e-03  0:00:10   74
    93  1.7914e+00  1.1961e+00  3.0582e-01  1.6516e+00  2.0461e-03  4.9616e-03  0:00:08   73
    94  1.7799e+00  1.1885e+00  3.0339e-01  1.6412e+00  2.0339e-03  4.8951e-03  0:00:06   72
    95  1.7685e+00  1.1810e+00  3.0095e-01  1.6308e+00  2.0211e-03  4.8331e-03  0:00:05   71
    96  1.7571e+00  1.1734e+00  2.9852e-01  1.6204e+00  2.0084e-03  4.7737e-03  0:00:04   70
    97  1.7460e+00  1.1660e+00  2.9606e-01  1.6103e+00  1.9954e-03  4.7143e-03  0:00:03   69
    98  1.7351e+00  1.1586e+00  2.9371e-01  1.6003e+00  1.9836e-03  4.6552e-03  0:00:02   68

  iter  continuity  x-velocity  y-velocity      energy           k       omega     time/iter
    99  1.7245e+00  1.1514e+00  2.9147e-01  1.5906e+00  1.9712e-03  4.5965e-03  0:00:02   67
   100  1.7141e+00  1.1443e+00  2.8932e-01  1.5810e+00  1.9590e-03  4.5407e-03  0:00:02   66
   101  1.7039e+00  1.1373e+00  2.8724e-01  1.5716e+00  1.9474e-03  4.4849e-03  0:00:01   65
   102  1.6939e+00  1.1305e+00  2.8529e-01  1.5624e+00  1.9358e-03  4.4317e-03  0:00:01   64
   103  1.6844e+00  1.1240e+00  2.8344e-01  1.5535e+00  1.9239e-03  4.3784e-03  0:00:01   63
   104  1.6752e+00  1.1178e+00  2.8169e-01  1.5450e+00  1.9122e-03  4.3266e-03  0:00:13   62
   105  1.6661e+00  1.1118e+00  2.7999e-01  1.5366e+00  1.9009e-03  4.2734e-03  0:00:10   61
   106  1.6575e+00  1.1059e+00  2.7829e-01  1.5285e+00  1.8896e-03  4.2193e-03  0:00:08   60
   107  1.6489e+00  1.1001e+00  2.7660e-01  1.5205e+00  1.8780e-03  4.1619e-03  0:00:06   59
   108  1.6403e+00  1.0944e+00  2.7489e-01  1.5126e+00  1.8669e-03  4.1052e-03  0:00:05   58
   109  1.6316e+00  1.0888e+00  2.7318e-01  1.5046e+00  1.8563e-03  4.0502e-03  0:00:04   57

  iter  continuity  x-velocity  y-velocity      energy           k       omega     time/iter
   110  1.6229e+00  1.0834e+00  2.7146e-01  1.4967e+00  1.8459e-03  3.9957e-03  0:00:03   56
   111  1.6144e+00  1.0781e+00  2.6980e-01  1.4890e+00  1.8356e-03  3.9380e-03  0:00:02   55
   112  1.6062e+00  1.0729e+00  2.6821e-01  1.4815e+00  1.8258e-03  3.8805e-03  0:00:02   54
   113  1.5982e+00  1.0678e+00  2.6668e-01  1.4741e+00  1.8159e-03  3.8212e-03  0:00:01   53
   114  1.5902e+00  1.0626e+00  2.6516e-01  1.4668e+00  1.8063e-03  3.7627e-03  0:00:01   52
   115  1.5823e+00  1.0574e+00  2.6361e-01  1.4596e+00  1.7959e-03  3.7055e-03  0:00:01   51
   116  1.5743e+00  1.0522e+00  2.6208e-01  1.4524e+00  1.7855e-03  3.6527e-03  0:00:01   50
   117  1.5664e+00  1.0469e+00  2.6054e-01  1.4451e+00  1.7753e-03  3.5989e-03  0:00:01   49
   118  1.5582e+00  1.0415e+00  2.5895e-01  1.4377e+00  1.7653e-03  3.5443e-03  0:00:10   48
   119  1.5499e+00  1.0360e+00  2.5734e-01  1.4301e+00  1.7560e-03  3.4885e-03  0:00:08   47
   120  1.5415e+00  1.0304e+00  2.5571e-01  1.4225e+00  1.7468e-03  3.4328e-03  0:00:06   46

  iter  continuity  x-velocity  y-velocity      energy           k       omega     time/iter
   121  1.5330e+00  1.0248e+00  2.5407e-01  1.4149e+00  1.7378e-03  3.3782e-03  0:00:05   45
   122  1.5245e+00  1.0192e+00  2.5241e-01  1.4072e+00  1.7287e-03  3.3235e-03  0:00:04   44
   123  1.5159e+00  1.0136e+00  2.5074e-01  1.3996e+00  1.7195e-03  3.2704e-03  0:00:03   43
   124  1.5073e+00  1.0080e+00  2.4908e-01  1.3919e+00  1.7106e-03  3.2176e-03  0:00:02   42
   125  1.4986e+00  1.0024e+00  2.4742e-01  1.3843e+00  1.7010e-03  3.1671e-03  0:00:02   41
   126  1.4898e+00  9.9679e-01  2.4575e-01  1.3766e+00  1.6913e-03  3.1185e-03  0:00:01   40
   127  1.4809e+00  9.9110e-01  2.4407e-01  1.3688e+00  1.6821e-03  3.0700e-03  0:00:01   39
   128  1.4719e+00  9.8538e-01  2.4235e-01  1.3609e+00  1.6735e-03  3.0227e-03  0:00:01   38
   129  1.4628e+00  9.7963e-01  2.4062e-01  1.3529e+00  1.6653e-03  2.9828e-03  0:00:01   37
   130  1.4538e+00  9.7390e-01  2.3890e-01  1.3450e+00  1.6571e-03  2.9422e-03  0:00:01   36
   131  1.4448e+00  9.6820e-01  2.3720e-01  1.3371e+00  1.6485e-03  2.9034e-03  0:00:00   35

  iter  continuity  x-velocity  y-velocity      energy           k       omega     time/iter
   132  1.4361e+00  9.6264e-01  2.3554e-01  1.3294e+00  1.6397e-03  2.8640e-03  0:00:07   34
   133  1.4275e+00  9.5714e-01  2.3388e-01  1.3218e+00  1.6311e-03  2.8252e-03  0:00:06   33
   134  1.4191e+00  9.5176e-01  2.3225e-01  1.3144e+00  1.6223e-03  2.7857e-03  0:00:04   32
   135  1.4108e+00  9.4643e-01  2.3064e-01  1.3070e+00  1.6135e-03  2.7486e-03  0:00:03   31
   136  1.4027e+00  9.4116e-01  2.2904e-01  1.2997e+00  1.6051e-03  2.7114e-03  0:00:03   30
   137  1.3946e+00  9.3589e-01  2.2744e-01  1.2923e+00  1.5974e-03  2.6746e-03  0:00:02   29
   138  1.3866e+00  9.3073e-01  2.2586e-01  1.2851e+00  1.5893e-03  2.6383e-03  0:00:02   28
   139  1.3789e+00  9.2565e-01  2.2432e-01  1.2780e+00  1.5810e-03  2.6022e-03  0:00:01   27
   140  1.3712e+00  9.2064e-01  2.2280e-01  1.2710e+00  1.5731e-03  2.5656e-03  0:00:01   26
   141  1.3638e+00  9.1577e-01  2.2134e-01  1.2642e+00  1.5652e-03  2.5296e-03  0:00:01   25
   142  1.3566e+00  9.1107e-01  2.1992e-01  1.2577e+00  1.5573e-03  2.4951e-03  0:00:01   24

  iter  continuity  x-velocity  y-velocity      energy           k       omega     time/iter
   143  1.3497e+00  9.0651e-01  2.1853e-01  1.2514e+00  1.5489e-03  2.4606e-03  0:00:00   23
   144  1.3430e+00  9.0204e-01  2.1717e-01  1.2452e+00  1.5410e-03  2.4265e-03  0:00:00   22
   145  1.3364e+00  8.9766e-01  2.1584e-01  1.2391e+00  1.5332e-03  2.3946e-03  0:00:00   21
   146  1.3299e+00  8.9334e-01  2.1452e-01  1.2332e+00  1.5252e-03  2.3640e-03  0:00:04   20
   147  1.3235e+00  8.8912e-01  2.1321e-01  1.2274e+00  1.5174e-03  2.3340e-03  0:00:03   19
   148  1.3174e+00  8.8503e-01  2.1196e-01  1.2218e+00  1.5099e-03  2.3056e-03  0:00:02   18
   149  1.3115e+00  8.8109e-01  2.1074e-01  1.2164e+00  1.5017e-03  2.2768e-03  0:00:02   17
   150  1.3058e+00  8.7726e-01  2.0957e-01  1.2112e+00  1.4940e-03  2.2473e-03  0:00:01   16
   151  1.3003e+00  8.7357e-01  2.0844e-01  1.2061e+00  1.4859e-03  2.2187e-03  0:00:01   15
   152  1.2950e+00  8.7001e-01  2.0736e-01  1.2013e+00  1.4768e-03  2.1912e-03  0:00:01   14
   153  1.2899e+00  8.6660e-01  2.0633e-01  1.1968e+00  1.4687e-03  2.1638e-03  0:00:03   13

  iter  continuity  x-velocity  y-velocity      energy           k       omega     time/iter
   154  1.2849e+00  8.6329e-01  2.0533e-01  1.1923e+00  1.4608e-03  2.1361e-03  0:00:02   12
   155  1.2801e+00  8.6006e-01  2.0433e-01  1.1880e+00  1.4528e-03  2.1085e-03  0:00:02   11
   156  1.2754e+00  8.5687e-01  2.0335e-01  1.1837e+00  1.4446e-03  2.0810e-03  0:00:01   10
   157  1.2707e+00  8.5379e-01  2.0240e-01  1.1796e+00  1.4374e-03  2.0536e-03  0:00:01    9
   158  1.2663e+00  8.5082e-01  2.0148e-01  1.1756e+00  1.4291e-03  2.0246e-03  0:00:01    8
   159  1.2619e+00  8.4791e-01  2.0059e-01  1.1717e+00  1.4205e-03  1.9958e-03  0:00:00    7
   160  1.2576e+00  8.4505e-01  1.9972e-01  1.1679e+00  1.4119e-03  1.9666e-03  0:00:00    6
   161  1.2534e+00  8.4225e-01  1.9866e-01  1.1642e+00  1.4037e-03  1.9382e-03  0:00:00    5
   162  1.2493e+00  8.3949e-01  1.9768e-01  1.1604e+00  1.3956e-03  1.9095e-03  0:00:00    4
   163  1.2452e+00  8.3674e-01  1.9673e-01  1.1567e+00  1.3873e-03  1.8809e-03  0:00:00    3
   164  1.2410e+00  8.3396e-01  1.9579e-01  1.1530e+00  1.3795e-03  1.8524e-03  0:00:00    2

  iter  continuity  x-velocity  y-velocity      energy           k       omega     time/iter
   165  1.2367e+00  8.3112e-01  1.9485e-01  1.1491e+00  1.3718e-03  1.8256e-03  0:00:00    1
   166  1.2324e+00  8.2825e-01  1.9391e-01  1.1452e+00  1.3635e-03  1.7990e-03  0:00:00    0
(cx-gui-do cx-set-list-tree-selections "NavigationPane*Frame2*Table1*List_Tree2" (list "Results|Graphics|Contours|contour-3"))
(cx-gui-do cx-set-list-tree-selections "NavigationPane*Frame2*Table1*List_Tree2" (list "Results|Graphics|Contours|contour-3"))
(cx-gui-do cx-activate-item "NavigationPane*Frame2*Table1*List_Tree2")
(cx-gui-do cx-set-list-tree-selections "NavigationPane*Frame2*Table1*List_Tree2" (list "Results|Graphics|Contours|contour-3"))
(cx-gui-do cx-activate-item "Contours*PanelButtons*PushButton1(OK)")
(cx-gui-do cx-set-list-selections "Contours*Table1*Frame3*Table1*DropDownList1(Contours of)" '( 1))
(cx-gui-do cx-activate-item "Contours*Table1*Frame3*Table1*DropDownList1(Contours of)")
(cx-gui-do cx-activate-item "Contours*PanelButtons*PushButton1(OK)")

  iter  continuity  x-velocity  y-velocity      energy           k       omega     time/iter
   166  1.2324e+00  8.2825e-01  1.9391e-01  1.1452e+00  1.3635e-03  1.7990e-03  0:04:43 2000
   167  1.2280e+00  8.2533e-01  1.9296e-01  1.1412e+00  1.3549e-03  1.7745e-03  0:03:46 1999
   168  1.2236e+00  8.2241e-01  1.9203e-01  1.1372e+00  1.3462e-03  1.7496e-03  0:03:01 1998
   169  1.2191e+00  8.1945e-01  1.9109e-01  1.1332e+00  1.3374e-03  1.7252e-03  0:02:25 1997
   170  1.2146e+00  8.1644e-01  1.9016e-01  1.1290e+00  1.3290e-03  1.7012e-03  0:01:56 1996
   171  1.2100e+00  8.1338e-01  1.8924e-01  1.1248e+00  1.3206e-03  1.6788e-03  0:01:32 1995
   172  1.2053e+00  8.1024e-01  1.8832e-01  1.1205e+00  1.3125e-03  1.6575e-03  0:01:14 1994
   173  1.2004e+00  8.0702e-01  1.8739e-01  1.1161e+00  1.3041e-03  1.6396e-03  0:00:59 1993
   174  1.1954e+00  8.0370e-01  1.8645e-01  1.1115e+00  1.2958e-03  1.6236e-03  0:00:47 1992
   175  1.1903e+00  8.0025e-01  1.8550e-01  1.1068e+00  1.2871e-03  1.6068e-03  0:07:16 1991
   176  1.1849e+00  7.9669e-01  1.8454e-01  1.1019e+00  1.2783e-03  1.5910e-03  0:05:49 1990

  iter  continuity  x-velocity  y-velocity      energy           k       omega     time/iter
   177  1.1795e+00  7.9302e-01  1.8358e-01  1.0969e+00  1.2687e-03  1.5743e-03  0:04:39 1989
   178  1.1739e+00  7.8928e-01  1.8263e-01  1.0917e+00  1.2593e-03  1.5583e-03  0:03:43 1988
   179  1.1683e+00  7.8546e-01  1.8168e-01  1.0865e+00  1.2504e-03  1.5419e-03  0:02:58 1987
   180  1.1625e+00  7.8155e-01  1.8074e-01  1.0811e+00  1.2413e-03  1.5256e-03  0:02:23 1986
   181  1.1566e+00  7.7755e-01  1.7981e-01  1.0756e+00  1.2325e-03  1.5094e-03  0:01:54 1985
   182  1.1506e+00  7.7347e-01  1.7889e-01  1.0700e+00  1.2235e-03  1.4938e-03  0:01:31 1984
   183  1.1444e+00  7.6928e-01  1.7796e-01  1.0643e+00  1.2138e-03  1.4775e-03  0:01:13 1983
   184  1.1381e+00  7.6497e-01  1.7703e-01  1.0584e+00  1.2044e-03  1.4618e-03  0:00:58 1982
   185  1.1317e+00  7.6056e-01  1.7610e-01  1.0524e+00  1.1947e-03  1.4471e-03  0:00:47 1981
   186  1.1251e+00  7.5606e-01  1.7519e-01  1.0462e+00  1.1849e-03  1.4318e-03  0:00:37 1980
   187  1.1184e+00  7.5146e-01  1.7428e-01  1.0399e+00  1.1747e-03  1.4176e-03  0:07:06 1979

  iter  continuity  x-velocity  y-velocity      energy           k       omega     time/iter
   188  1.1116e+00  7.4676e-01  1.7337e-01  1.0334e+00  1.1652e-03  1.4035e-03  0:05:40 1978
   189  1.1047e+00  7.4196e-01  1.7246e-01  1.0268e+00  1.1550e-03  1.3911e-03  0:04:32 1977
   190  1.0976e+00  7.3704e-01  1.7155e-01  1.0201e+00  1.1447e-03  1.3796e-03  0:03:38 1976
   191  1.0904e+00  7.3204e-01  1.7064e-01  1.0132e+00  1.1346e-03  1.3685e-03  0:02:54 1975
   192  1.0831e+00  7.2698e-01  1.6975e-01  1.0062e+00  1.1243e-03  1.3570e-03  0:02:19 1974
   193  1.0757e+00  7.2185e-01  1.6887e-01  9.9918e-01  1.1140e-03  1.3452e-03  0:01:51 1973
   194  1.0683e+00  7.1666e-01  1.6800e-01  9.9204e-01  1.1036e-03  1.3329e-03  0:01:29 1972
   195  1.0608e+00  7.1138e-01  1.6713e-01  9.8478e-01  1.0925e-03  1.3211e-03  0:01:11 1971
   196  1.0531e+00  7.0602e-01  1.6625e-01  9.7740e-01  1.0818e-03  1.3092e-03  0:00:57 1970
   197  1.0453e+00  7.0058e-01  1.6537e-01  9.6990e-01  1.0715e-03  1.2976e-03  0:00:45 1969
   198  1.0375e+00  6.9505e-01  1.6449e-01  9.6229e-01  1.0615e-03  1.2861e-03  0:00:36 1968

  iter  continuity  x-velocity  y-velocity      energy           k       omega     time/iter
   199  1.0295e+00  6.8946e-01  1.6360e-01  9.5458e-01  1.0509e-03  1.2754e-03  0:07:02 1967
   200  1.0214e+00  6.8381e-01  1.6272e-01  9.4679e-01  1.0410e-03  1.2655e-03  0:05:38 1966
   201  1.0133e+00  6.7813e-01  1.6185e-01  9.3896e-01  1.0309e-03  1.2547e-03  0:04:30 1965
   202  1.0052e+00  6.7241e-01  1.6097e-01  9.3108e-01  1.0206e-03  1.2443e-03  0:03:36 1964
   203  9.9706e-01  6.6669e-01  1.6011e-01  9.2319e-01  1.0103e-03  1.2335e-03  0:02:53 1963
   204  9.8891e-01  6.6096e-01  1.5925e-01  9.1530e-01  1.0005e-03  1.2243e-03  0:02:18 1962
   205  9.8074e-01  6.5521e-01  1.5840e-01  9.0737e-01  9.9119e-04  1.2156e-03  0:01:50 1961
   206  9.7254e-01  6.4944e-01  1.5754e-01  8.9943e-01  9.8174e-04  1.2076e-03  0:01:28 1960
   207  9.6434e-01  6.4368e-01  1.5667e-01  8.9148e-01  9.7263e-04  1.1990e-03  0:01:11 1959
   208  9.5613e-01  6.3790e-01  1.5581e-01  8.8353e-01  9.6372e-04  1.1905e-03  0:00:56 1958
   209  9.4791e-01  6.3213e-01  1.5494e-01  8.7557e-01  9.5485e-04  1.1817e-03  0:00:45 1957

  iter  continuity  x-velocity  y-velocity      energy           k       omega     time/iter
   210  9.3970e-01  6.2636e-01  1.5407e-01  8.6761e-01  9.4604e-04  1.1733e-03  0:00:36 1956
   211  9.3153e-01  6.2062e-01  1.5320e-01  8.5971e-01  9.3799e-04  1.1653e-03  0:00:29 1955
   212  9.2343e-01  6.1493e-01  1.5234e-01  8.5188e-01  9.2930e-04  1.1575e-03  0:00:23 1954
   213  9.1540e-01  6.0929e-01  1.5148e-01  8.4411e-01  9.2101e-04  1.1497e-03  0:06:49 1953
   214  9.0745e-01  6.0371e-01  1.5062e-01  8.3643e-01  9.1414e-04  1.1424e-03  0:05:27 1952
   215  8.9956e-01  5.9818e-01  1.4976e-01  8.2881e-01  9.0699e-04  1.1339e-03  0:04:22 1951
   216  8.9173e-01  5.9269e-01  1.4889e-01  8.2125e-01  8.9987e-04  1.1258e-03  0:03:29 1950
   217  8.8395e-01  5.8725e-01  1.4802e-01  8.1375e-01  8.9364e-04  1.1183e-03  0:02:47 1949
   218  8.7627e-01  5.8187e-01  1.4715e-01  8.0634e-01  8.8729e-04  1.1098e-03  0:02:14 1948
   219  8.6867e-01  5.7656e-01  1.4628e-01  7.9902e-01  8.8107e-04  1.1013e-03  0:01:47 1947
   220  8.6118e-01  5.7133e-01  1.4541e-01  7.9180e-01  8.7475e-04  1.0924e-03  0:01:25 1946

  iter  continuity  x-velocity  y-velocity      energy           k       omega     time/iter
   221  8.5379e-01  5.6617e-01  1.4455e-01  7.8468e-01  8.6895e-04  1.0846e-03  0:01:08 1945
   222  8.4653e-01  5.6110e-01  1.4369e-01  7.7769e-01  8.6292e-04  1.0759e-03  0:07:23 1944
   223  8.3939e-01  5.5613e-01  1.4283e-01  7.7083e-01  8.5731e-04  1.0670e-03  0:05:55 1943
   224  8.3237e-01  5.5124e-01  1.4197e-01  7.6408e-01  8.5265e-04  1.0575e-03  0:04:44 1942
   225  8.2543e-01  5.4641e-01  1.4112e-01  7.5742e-01  8.4792e-04  1.0478e-03  0:03:47 1941
   226  8.1861e-01  5.4167e-01  1.4027e-01  7.5087e-01  8.4324e-04  1.0378e-03  0:03:01 1940
   227  8.1190e-01  5.3702e-01  1.3942e-01  7.4443e-01  8.3840e-04  1.0280e-03  0:02:25 1939
   228  8.0530e-01  5.3243e-01  1.3859e-01  7.3809e-01  8.3376e-04  1.0174e-03  0:01:56 1938
   229  7.9880e-01  5.2793e-01  1.3775e-01  7.3186e-01  8.2908e-04  1.0069e-03  0:01:33 1937
   230  7.9241e-01  5.2350e-01  1.3692e-01  7.2574e-01  8.2456e-04  9.9701e-04  0:01:14 1936
   231  7.8614e-01  5.1916e-01  1.3610e-01  7.1973e-01  8.1986e-04  9.8659e-04  0:00:59 1935

  iter  continuity  x-velocity  y-velocity      energy           k       omega     time/iter
   232  7.7998e-01  5.1490e-01  1.3530e-01  7.1383e-01  8.1538e-04  9.7673e-04  0:00:47 1934
   233  7.7390e-01  5.1071e-01  1.3450e-01  7.0803e-01  8.1138e-04  9.6623e-04  0:07:04 1933
   234  7.6791e-01  5.0657e-01  1.3370e-01  7.0230e-01  8.0734e-04  9.5572e-04  0:05:39 1932
   235  7.6199e-01  5.0249e-01  1.3291e-01  6.9665e-01  8.0332e-04  9.4452e-04  0:04:31 1931
   236  7.5614e-01  4.9846e-01  1.3213e-01  6.9106e-01  7.9906e-04  9.3359e-04  0:03:37 1930
   237  7.5035e-01  4.9448e-01  1.3136e-01  6.8554e-01  7.9527e-04  9.2198e-04  0:02:54 1929
   238  7.4463e-01  4.9055e-01  1.3059e-01  6.8009e-01  7.9131e-04  9.1093e-04  0:02:19 1928
   239  7.3896e-01  4.8665e-01  1.2983e-01  6.7471e-01  7.8754e-04  8.9940e-04  0:01:51 1927
   240  7.3336e-01  4.8281e-01  1.2908e-01  6.6939e-01  7.8348e-04  8.8846e-04  0:01:29 1926
   241  7.2781e-01  4.7900e-01  1.2834e-01  6.6413e-01  7.7915e-04  8.7667e-04  0:01:11 1925
   242  7.2230e-01  4.7523e-01  1.2761e-01  6.5891e-01  7.7519e-04  8.6583e-04  0:07:22 1924

  iter  continuity  x-velocity  y-velocity      energy           k       omega     time/iter
   243  7.1683e-01  4.7148e-01  1.2688e-01  6.5374e-01  7.7108e-04  8.5579e-04  0:05:53 1923
   244  7.1140e-01  4.6777e-01  1.2617e-01  6.4861e-01  7.6707e-04  8.4510e-04  0:04:42 1922
   245  7.0600e-01  4.6407e-01  1.2546e-01  6.4352e-01  7.6272e-04  8.3503e-04  0:03:46 1921
   246  7.0063e-01  4.6040e-01  1.2475e-01  6.3846e-01  7.5878e-04  8.2642e-04  0:03:00 1920
   247  6.9527e-01  4.5674e-01  1.2406e-01  6.3344e-01  7.5483e-04  8.1838e-04  0:02:24 1919
   248  6.8994e-01  4.5310e-01  1.2336e-01  6.2844e-01  7.5022e-04  8.1093e-04  0:01:55 1918
   249  6.8463e-01  4.4948e-01  1.2267e-01  6.2346e-01  7.4591e-04  8.0440e-04  0:01:32 1917
   250  6.7933e-01  4.4587e-01  1.2199e-01  6.1851e-01  7.4177e-04  7.9780e-04  0:01:14 1916
   251  6.7406e-01  4.4227e-01  1.2132e-01  6.1359e-01  7.3735e-04  7.9063e-04  0:00:59 1915
   252  6.6881e-01  4.3870e-01  1.2064e-01  6.0869e-01  7.3287e-04  7.8367e-04  0:07:10 1914
   253  6.6360e-01  4.3515e-01  1.1997e-01  6.0384e-01  7.2896e-04  7.7711e-04  0:05:44 1913

  iter  continuity  x-velocity  y-velocity      energy           k       omega     time/iter
   254  6.5843e-01  4.3164e-01  1.1932e-01  5.9904e-01  7.2480e-04  7.6993e-04  0:04:35 1912
   255  6.5329e-01  4.2814e-01  1.1867e-01  5.9427e-01  7.2024e-04  7.6293e-04  0:03:40 1911
   256  6.4817e-01  4.2467e-01  1.1801e-01  5.8952e-01  7.1599e-04  7.5679e-04  0:02:56 1910
   257  6.4310e-01  4.2122e-01  1.1737e-01  5.8483e-01  7.1162e-04  7.5071e-04  0:02:21 1909
   258  6.3808e-01  4.1781e-01  1.1673e-01  5.8019e-01  7.0694e-04  7.4489e-04  0:01:52 1908
   259  6.3308e-01  4.1442e-01  1.1610e-01  5.7556e-01  7.0283e-04  7.4126e-04  0:01:30 1907
   260  6.2812e-01  4.1105e-01  1.1547e-01  5.7097e-01  6.9841e-04  7.3758e-04  0:01:12 1906
   261  6.2322e-01  4.0773e-01  1.1485e-01  5.6645e-01  6.9424e-04  7.3383e-04  0:00:57 1905
   262  6.1839e-01  4.0446e-01  1.1424e-01  5.6199e-01  6.8961e-04  7.3015e-04  0:00:46 1904
   263  6.1361e-01  4.0122e-01  1.1363e-01  5.5757e-01  6.8515e-04  7.2717e-04  0:06:57 1903
   264  6.0889e-01  3.9802e-01  1.1302e-01  5.5321e-01  6.8011e-04  7.2329e-04  0:05:34 1902

  iter  continuity  x-velocity  y-velocity      energy           k       omega     time/iter
   265  6.0424e-01  3.9488e-01  1.1242e-01  5.4891e-01  6.7575e-04  7.1967e-04  0:04:27 1901
   266  5.9966e-01  3.9178e-01  1.1182e-01  5.4467e-01  6.7169e-04  7.1610e-04  0:03:33 1900
   267  5.9515e-01  3.8873e-01  1.1123e-01  5.4050e-01  6.6746e-04  7.1243e-04  0:02:51 1899
   268  5.9071e-01  3.8572e-01  1.1065e-01  5.3639e-01  6.6287e-04  7.0797e-04  0:02:16 1898
   269  5.8635e-01  3.8277e-01  1.1008e-01  5.3235e-01  6.5880e-04  7.0372e-04  0:01:49 1897
   270  5.8207e-01  3.7988e-01  1.0951e-01  5.2837e-01  6.5458e-04  6.9925e-04  0:01:27 1896
   271  5.7787e-01  3.7703e-01  1.0894e-01  5.2446e-01  6.5000e-04  6.9412e-04  0:01:10 1895
   272  5.7375e-01  3.7425e-01  1.0838e-01  5.2063e-01  6.4629e-04  6.8932e-04  0:00:56 1894
   273  5.6972e-01  3.7152e-01  1.0783e-01  5.1687e-01  6.4287e-04  6.8487e-04  0:00:45 1893
   274  5.6577e-01  3.6885e-01  1.0729e-01  5.1319e-01  6.3871e-04  6.7935e-04  0:06:54 1892
   275  5.6189e-01  3.6623e-01  1.0675e-01  5.0956e-01  6.3447e-04  6.7368e-04  0:05:31 1891

  iter  continuity  x-velocity  y-velocity      energy           k       omega     time/iter
   276  5.5811e-01  3.6368e-01  1.0622e-01  5.0603e-01  6.3073e-04  6.6853e-04  0:04:25 1890
   277  5.5442e-01  3.6119e-01  1.0570e-01  5.0257e-01  6.2733e-04  6.6277e-04  0:03:32 1889
   278  5.5082e-01  3.5875e-01  1.0518e-01  4.9918e-01  6.2345e-04  6.5738e-04  0:02:49 1888
   279  5.4729e-01  3.5636e-01  1.0467e-01  4.9587e-01  6.1989e-04  6.5218e-04  0:02:15 1887
   280  5.4382e-01  3.5402e-01  1.0416e-01  4.9261e-01  6.1639e-04  6.4665e-04  0:01:48 1886
   281  5.4045e-01  3.5175e-01  1.0367e-01  4.8944e-01  6.1298e-04  6.4141e-04  0:01:27 1885
   282  5.3718e-01  3.4953e-01  1.0318e-01  4.8635e-01  6.0961e-04  6.3595e-04  0:07:26 1884
   283  5.3398e-01  3.4737e-01  1.0270e-01  4.8333e-01  6.0646e-04  6.3027e-04  0:05:57 1883
   284  5.3084e-01  3.4525e-01  1.0223e-01  4.8037e-01  6.0324e-04  6.2442e-04  0:04:45 1882
   285  5.2779e-01  3.4319e-01  1.0176e-01  4.7749e-01  5.9931e-04  6.1845e-04  0:03:48 1881
   286  5.2484e-01  3.4120e-01  1.0131e-01  4.7470e-01  5.9608e-04  6.1244e-04  0:03:02 1880

  iter  continuity  x-velocity  y-velocity      energy           k       omega     time/iter
   287  5.2197e-01  3.3926e-01  1.0086e-01  4.7199e-01  5.9274e-04  6.0635e-04  0:02:26 1879
   288  5.1912e-01  3.3735e-01  1.0042e-01  4.6931e-01  5.8968e-04  6.0092e-04  0:01:57 1878
   289  5.1636e-01  3.3549e-01  9.9986e-02  4.6670e-01  5.8671e-04  5.9579e-04  0:01:33 1877
   290  5.1367e-01  3.3368e-01  9.9563e-02  4.6418e-01  5.8395e-04  5.9032e-04  0:01:15 1876
   291  5.1107e-01  3.3193e-01  9.9157e-02  4.6173e-01  5.8125e-04  5.8520e-04  0:01:00 1875
   292  5.0849e-01  3.3020e-01  9.8748e-02  4.5932e-01  5.7763e-04  5.7948e-04  0:07:02 1874
   293  5.0597e-01  3.2850e-01  9.8345e-02  4.5696e-01  5.7479e-04  5.7457e-04  0:05:38 1873
   294  5.0351e-01  3.2685e-01  9.7956e-02  4.5466e-01  5.7175e-04  5.6982e-04  0:04:30 1872
   295  5.0111e-01  3.2525e-01  9.7581e-02  4.5244e-01  5.6876e-04  5.6461e-04  0:03:36 1871
   296  4.9875e-01  3.2367e-01  9.7205e-02  4.5025e-01  5.6578e-04  5.5983e-04  0:02:53 1870
   297  4.9643e-01  3.2212e-01  9.6838e-02  4.4811e-01  5.6298e-04  5.5498e-04  0:02:18 1869

  iter  continuity  x-velocity  y-velocity      energy           k       omega     time/iter
   298  4.9416e-01  3.2061e-01  9.6488e-02  4.4602e-01  5.6022e-04  5.5011e-04  0:01:50 1868
   299  4.9194e-01  3.1913e-01  9.6147e-02  4.4398e-01  5.5778e-04  5.4515e-04  0:01:28 1867
   300  4.8975e-01  3.1766e-01  9.5810e-02  4.4198e-01  5.5501e-04  5.4074e-04  0:01:11 1866
   301  4.8757e-01  3.1621e-01  9.5479e-02  4.4000e-01  5.5173e-04  5.3658e-04  0:00:56 1865
   302  4.8542e-01  3.1479e-01  9.5155e-02  4.3805e-01  5.4851e-04  5.3259e-04  0:00:45 1864
   303  4.8329e-01  3.1337e-01  9.4838e-02  4.3612e-01  5.4561e-04  5.2889e-04  0:06:49 1863
   304  4.8117e-01  3.1196e-01  9.4531e-02  4.3422e-01  5.4314e-04  5.2538e-04  0:05:27 1862
   305  4.7905e-01  3.1057e-01  9.4230e-02  4.3233e-01  5.4052e-04  5.2143e-04  0:04:21 1861
   306  4.7695e-01  3.0918e-01  9.3934e-02  4.3046e-01  5.3789e-04  5.1812e-04  0:03:29 1860
   307  4.7488e-01  3.0781e-01  9.3647e-02  4.2861e-01  5.3486e-04  5.1421e-04  0:02:47 1859
   308  4.7282e-01  3.0644e-01  9.3369e-02  4.2678e-01  5.3177e-04  5.0985e-04  0:02:14 1858

  iter  continuity  x-velocity  y-velocity      energy           k       omega     time/iter
   309  4.7076e-01  3.0508e-01  9.3095e-02  4.2496e-01  5.2919e-04  5.0650e-04  0:07:58 1857
   310  4.6870e-01  3.0371e-01  9.2822e-02  4.2313e-01  5.2565e-04  5.0240e-04  0:06:22 1856
   311  4.6663e-01  3.0234e-01  9.2552e-02  4.2131e-01  5.2237e-04  4.9817e-04  0:05:06 1855
   312  4.6454e-01  3.0096e-01  9.2292e-02  4.1947e-01  5.2005e-04  4.9508e-04  0:04:04 1854
   313  4.6245e-01  2.9957e-01  9.2040e-02  4.1762e-01  5.1719e-04  4.9103e-04  0:03:15 1853
   314  4.6034e-01  2.9818e-01  9.1786e-02  4.1577e-01  5.1424e-04  4.8697e-04  0:02:36 1852
   315  4.5824e-01  2.9679e-01  9.1530e-02  4.1392e-01  5.1133e-04  4.8368e-04  0:02:05 1851
   316  4.5615e-01  2.9539e-01  9.1286e-02  4.1207e-01  5.0840e-04  4.8049e-04  0:01:40 1850
   317  4.5402e-01  2.9398e-01  9.1037e-02  4.1019e-01  5.0514e-04  4.7670e-04  0:01:20 1849
   318  4.5189e-01  2.9256e-01  9.0791e-02  4.0831e-01  5.0223e-04  4.7384e-04  0:01:04 1848
   319  4.4975e-01  2.9113e-01  9.0546e-02  4.0641e-01  4.9909e-04  4.7107e-04  0:00:51 1847

  iter  continuity  x-velocity  y-velocity      energy           k       omega     time/iter
   320  4.4761e-01  2.8970e-01  9.0306e-02  4.0451e-01  4.9624e-04  4.6804e-04  0:06:50 1846
   321  4.4544e-01  2.8825e-01  9.0064e-02  4.0258e-01  4.9331e-04  4.6541e-04  0:05:28 1845
   322  4.4327e-01  2.8679e-01  8.9821e-02  4.0064e-01  4.9002e-04  4.6244e-04  0:04:22 1844
   323  4.4110e-01  2.8534e-01  8.9574e-02  3.9869e-01  4.8711e-04  4.5982e-04  0:03:30 1843
   324  4.3893e-01  2.8388e-01  8.9324e-02  3.9673e-01  4.8373e-04  4.5697e-04  0:02:48 1842
   325  4.3673e-01  2.8239e-01  8.9067e-02  3.9475e-01  4.8060e-04  4.5433e-04  0:02:14 1841
   326  4.3455e-01  2.8092e-01  8.8814e-02  3.9276e-01  4.7755e-04  4.5166e-04  0:01:47 1840
   327  4.3237e-01  2.7944e-01  8.8560e-02  3.9077e-01  4.7453e-04  4.4910e-04  0:01:26 1839
   328  4.3020e-01  2.7797e-01  8.8305e-02  3.8878e-01  4.7180e-04  4.4649e-04  0:01:08 1838
   329  4.2804e-01  2.7651e-01  8.8046e-02  3.8680e-01  4.6898e-04  4.4407e-04  0:00:55 1837
   330  4.2591e-01  2.7505e-01  8.7784e-02  3.8483e-01  4.6584e-04  4.4127e-04  0:06:51 1836

  iter  continuity  x-velocity  y-velocity      energy           k       omega     time/iter
   331  4.2378e-01  2.7360e-01  8.7514e-02  3.8285e-01  4.6252e-04  4.3899e-04  0:05:29 1835
   332  4.2169e-01  2.7217e-01  8.7241e-02  3.8090e-01  4.5913e-04  4.3611e-04  0:04:23 1834
   333  4.1960e-01  2.7075e-01  8.6959e-02  3.7894e-01  4.5580e-04  4.3322e-04  0:03:30 1833
   334  4.1753e-01  2.6933e-01  8.6671e-02  3.7698e-01  4.5283e-04  4.3080e-04  0:02:48 1832
   335  4.1547e-01  2.6791e-01  8.6378e-02  3.7503e-01  4.4938e-04  4.2791e-04  0:02:14 1831
   336  4.1343e-01  2.6651e-01  8.6083e-02  3.7308e-01  4.4612e-04  4.2509e-04  0:01:47 1830
   337  4.1140e-01  2.6511e-01  8.5779e-02  3.7114e-01  4.4339e-04  4.2295e-04  0:01:26 1829
   338  4.0938e-01  2.6372e-01  8.5460e-02  3.6919e-01  4.4041e-04  4.2075e-04  0:01:09 1828
   339  4.0737e-01  2.6233e-01  8.5135e-02  3.6723e-01  4.3659e-04  4.1766e-04  0:00:55 1827
   340  4.0537e-01  2.6095e-01  8.4808e-02  3.6530e-01  4.3321e-04  4.1520e-04  0:06:49 1826
   341  4.0338e-01  2.5957e-01  8.4469e-02  3.6335e-01  4.2998e-04  4.1293e-04  0:05:27 1825

  iter  continuity  x-velocity  y-velocity      energy           k       omega     time/iter
   342  4.0135e-01  2.5817e-01  8.4121e-02  3.6137e-01  4.2651e-04  4.0984e-04  0:04:22 1824
   343  3.9934e-01  2.5678e-01  8.3766e-02  3.5940e-01  4.2374e-04  4.0730e-04  0:03:29 1823
   344  3.9732e-01  2.5538e-01  8.3398e-02  3.5741e-01  4.2017e-04  4.0478e-04  0:02:47 1822
   345  3.9530e-01  2.5399e-01  8.3025e-02  3.5542e-01  4.1726e-04  4.0281e-04  0:02:14 1821
   346  3.9328e-01  2.5259e-01  8.2645e-02  3.5342e-01  4.1382e-04  3.9979e-04  0:01:47 1820
   347  3.9125e-01  2.5118e-01  8.2254e-02  3.5140e-01  4.1061e-04  3.9748e-04  0:01:25 1819
   348  3.8921e-01  2.4977e-01  8.1855e-02  3.4938e-01  4.0726e-04  3.9527e-04  0:01:08 1818
   349  3.8716e-01  2.4836e-01  8.1448e-02  3.4735e-01  4.0365e-04  3.9243e-04  0:00:55 1817
   350  3.8508e-01  2.4692e-01  8.1025e-02  3.4528e-01  3.9976e-04  3.8969e-04  0:06:47 1816
   351  3.8296e-01  2.4546e-01  8.0591e-02  3.4318e-01  3.9666e-04  3.8706e-04  0:05:25 1815
   352  3.8083e-01  2.4400e-01  8.0146e-02  3.4106e-01  3.9340e-04  3.8409e-04  0:04:20 1814

  iter  continuity  x-velocity  y-velocity      energy           k       omega     time/iter
   353  3.7868e-01  2.4252e-01  7.9689e-02  3.3893e-01  3.8968e-04  3.8130e-04  0:03:28 1813
   354  3.7649e-01  2.4102e-01  7.9226e-02  3.3676e-01  3.8632e-04  3.7879e-04  0:02:46 1812
   355  3.7425e-01  2.3949e-01  7.8754e-02  3.3454e-01  3.8263e-04  3.7585e-04  0:02:13 1811
   356  3.7197e-01  2.3793e-01  7.8273e-02  3.3229e-01  3.7879e-04  3.7278e-04  0:01:46 1810
   357  3.6964e-01  2.3634e-01  7.7783e-02  3.3000e-01  3.7484e-04  3.6980e-04  0:01:25 1809
   358  3.6727e-01  2.3473e-01  7.7283e-02  3.2767e-01  3.7073e-04  3.6696e-04  0:01:08 1808
   359  3.6485e-01  2.3308e-01  7.6767e-02  3.2530e-01  3.6665e-04  3.6362e-04  0:00:54 1807
   360  3.6238e-01  2.3141e-01  7.6238e-02  3.2289e-01  3.6357e-04  3.6169e-04  0:06:45 1806
   361  3.5988e-01  2.2973e-01  7.5704e-02  3.2046e-01  3.5961e-04  3.5904e-04  0:05:24 1805
   362  3.5735e-01  2.2802e-01  7.5162e-02  3.1800e-01  3.5509e-04  3.5584e-04  0:04:19 1804
   363  3.5474e-01  2.2626e-01  7.4607e-02  3.1547e-01  3.5104e-04  3.5310e-04  0:03:27 1803

  iter  continuity  x-velocity  y-velocity      energy           k       omega     time/iter
   364  3.5210e-01  2.2449e-01  7.4046e-02  3.1292e-01  3.4712e-04  3.5040e-04  0:02:45 1802
   365  3.4943e-01  2.2270e-01  7.3475e-02  3.1034e-01  3.4261e-04  3.4715e-04  0:02:12 1801
   366  3.4671e-01  2.2088e-01  7.2897e-02  3.0773e-01  3.3790e-04  3.4392e-04  0:01:46 1800
   367  3.4394e-01  2.1903e-01  7.2311e-02  3.0508e-01  3.3327e-04  3.4129e-04  0:01:25 1799
   368  3.4113e-01  2.1716e-01  7.1719e-02  3.0239e-01  3.2950e-04  3.3836e-04  0:01:08 1798
   369  3.3827e-01  2.1526e-01  7.1116e-02  2.9966e-01  3.2520e-04  3.3556e-04  0:06:53 1797
   370  3.3539e-01  2.1335e-01  7.0509e-02  2.9692e-01  3.2071e-04  3.3315e-04  0:05:31 1796
   371  3.3247e-01  2.1141e-01  6.9889e-02  2.9415e-01  3.1646e-04  3.3022e-04  0:04:24 1795
   372  3.2950e-01  2.0945e-01  6.9260e-02  2.9135e-01  3.1248e-04  3.2897e-04  0:03:31 1794
   373  3.2649e-01  2.0746e-01  6.8629e-02  2.8851e-01  3.0787e-04  3.2706e-04  0:02:49 1793
   374  3.2346e-01  2.0546e-01  6.7992e-02  2.8565e-01  3.0349e-04  3.2621e-04  0:02:15 1792

  iter  continuity  x-velocity  y-velocity      energy           k       omega     time/iter
   375  3.2040e-01  2.0345e-01  6.7354e-02  2.8278e-01  2.9919e-04  3.2396e-04  0:01:48 1791
   376  3.1729e-01  2.0140e-01  6.6707e-02  2.7986e-01  2.9475e-04  3.2196e-04  0:01:26 1790
   377  3.1414e-01  1.9933e-01  6.6054e-02  2.7692e-01  2.9095e-04  3.1964e-04  0:01:09 1789
   378  3.1096e-01  1.9725e-01  6.5392e-02  2.7395e-01  2.8630e-04  3.1685e-04  0:00:55 1788
   379  3.0777e-01  1.9515e-01  6.4732e-02  2.7097e-01  2.8253e-04  3.1540e-04  0:00:44 1787
   380  3.0456e-01  1.9305e-01  6.4070e-02  2.6799e-01  2.7817e-04  3.1215e-04  0:06:32 1786
   381  3.0130e-01  1.9092e-01  6.3397e-02  2.6497e-01  2.7412e-04  3.1001e-04  0:05:14 1785
   382  2.9804e-01  1.8879e-01  6.2723e-02  2.6194e-01  2.6990e-04  3.0829e-04  0:04:11 1784
   383  2.9476e-01  1.8665e-01  6.2047e-02  2.5891e-01  2.6514e-04  3.0573e-04  0:03:21 1783
   384  2.9147e-01  1.8450e-01  6.1365e-02  2.5586e-01  2.6070e-04  3.0347e-04  0:02:40 1782
[...]
pressure-coefficient

ASCII scalar(1)> 
absolute-pressure                               pressure-hessian-indicator
acoustic-source-power                           production-of-k
acoustic-source-power-db                        q-criterion
axial-coordinate                                radial-coordinate
boundary-cell-dist                              radial-velocity
boundary-layer-cells                            raw-q-criterion
boundary-normal-dist                            reference-temperature-at-y+
boundary-volume-dist                            rel-mach-number
cell-element-type                               rel-tangential-velocity
cell-equiangle-skew                             rel-total-pressure
cell-equivolume-skew                            rel-total-temperature
cell-id                                         rel-velocity-magnitude
cell-partition-active                           relative-velocity-angle
cell-partition-stored                           relative-x-velocity
cell-refine-level                               relative-y-velocity
cell-reynolds-number                            rothalpy
cell-type                                       skin-friction-coef
cell-volume                                     smoothed-cell-refine-level
cell-volume-change                              sound-speed
cell-wall-distance                              specific-diss-rate
cell-weight                                     specific-heat-cp
cell-zone                                       stanton-number
density                                         strain-rate-mag
density-all                                     stream-function
dt-dx                                           surface-acoustic-power
dt-dy                                           surface-acoustic-power-db
dx-velocity-dx                                  tangential-velocity
dx-velocity-dy                                  temperature
dy-velocity-dx                                  thermal-conductivity-eff
dy-velocity-dy                                  thermal-conductivity-lam
dynamic-pressure                                time-step
enthalpy                                        total-energy
entropy                                         total-enthalpy
face-area-magnitude                             total-enthalpy-deviation
face-handedness                                 total-pressure
gamma                                           total-temperature
gas-constant                                    turb-diss-rate
heat-flux                                       turb-intensity
heat-transfer-coef                              turb-kinetic-energy
heat-transfer-coef-wall                         turb-reynolds-number-rey
heat-transfer-coef-wall-adj                     uref
heat-transfer-coef-yplus                        velocity-angle
interface-overlap-fraction                      velocity-magnitude
internal-energy                                 viscosity-eff
lambda2-criterion                               viscosity-lam
lee-noise-x-source-total                        viscosity-ratio
lee-noise-y-source-total                        viscosity-turb
lee-self-noise-x-source                         vorticity-mag
lee-self-noise-y-source                         wall-adjacent-temperature
lee-shear-noise-x-source                        wall-shear
lee-shear-noise-y-source                        wall-temp-in-surf
lilley-noise-source-total                       wall-temp-out-surf
lilley-self-noise-source                        wall-temp-thin
lilley-shear-noise-source                       wall-temperature
mach-number                                     x-coordinate
mark-poor-elements                              x-face-area
mesh-x-velocity                                 x-velocity
mesh-y-velocity                                 x-wall-shear
nusselt-number                                  y-coordinate
orthogonal-quality                              y-face-area
partition-neighbors                             y-plus
prandtl-number-eff                              y-star
prandtl-number-lam                              y-velocity
pressure                                        y-wall-shear
pressure-coefficient

ASCII scalar(1)> 
absolute-pressure                               pressure-hessian-indicator
acoustic-source-power                           production-of-k
acoustic-source-power-db                        q-criterion
axial-coordinate                                radial-coordinate
boundary-cell-dist                              radial-velocity
boundary-layer-cells                            raw-q-criterion
boundary-normal-dist                            reference-temperature-at-y+
boundary-volume-dist                            rel-mach-number
cell-element-type                               rel-tangential-velocity
cell-equiangle-skew                             rel-total-pressure
cell-equivolume-skew                            rel-total-temperature
cell-id                                         rel-velocity-magnitude
cell-partition-active                           relative-velocity-angle
cell-partition-stored                           relative-x-velocity
cell-refine-level                               relative-y-velocity
cell-reynolds-number                            rothalpy
cell-type                                       skin-friction-coef
cell-volume                                     smoothed-cell-refine-level
cell-volume-change                              sound-speed
cell-wall-distance                              specific-diss-rate
cell-weight                                     specific-heat-cp
cell-zone                                       stanton-number
density                                         strain-rate-mag
density-all                                     stream-function
dt-dx                                           surface-acoustic-power
dt-dy                                           surface-acoustic-power-db
dx-velocity-dx                                  tangential-velocity
dx-velocity-dy                                  temperature
dy-velocity-dx                                  thermal-conductivity-eff
dy-velocity-dy                                  thermal-conductivity-lam
dynamic-pressure                                time-step
enthalpy                                        total-energy
entropy                                         total-enthalpy
face-area-magnitude                             total-enthalpy-deviation
face-handedness                                 total-pressure
gamma                                           total-temperature
gas-constant                                    turb-diss-rate
heat-flux                                       turb-intensity
heat-transfer-coef                              turb-kinetic-energy
heat-transfer-coef-wall                         turb-reynolds-number-rey
heat-transfer-coef-wall-adj                     uref
heat-transfer-coef-yplus                        velocity-angle
interface-overlap-fraction                      velocity-magnitude
internal-energy                                 viscosity-eff
lambda2-criterion                               viscosity-lam
lee-noise-x-source-total                        viscosity-ratio
lee-noise-y-source-total                        viscosity-turb
lee-self-noise-x-source                         vorticity-mag
lee-self-noise-y-source                         wall-adjacent-temperature
lee-shear-noise-x-source                        wall-shear
lee-shear-noise-y-source                        wall-temp-in-surf
lilley-noise-source-total                       wall-temp-out-surf
lilley-self-noise-source                        wall-temp-thin
lilley-shear-noise-source                       wall-temperature
mach-number                                     x-coordinate
mark-poor-elements                              x-face-area
mesh-x-velocity                                 x-velocity
mesh-y-velocity                                 x-wall-shear
nusselt-number                                  y-coordinate
orthogonal-quality                              y-face-area
partition-neighbors                             y-plus
prandtl-number-eff                              y-star
prandtl-number-lam                              y-velocity
pressure                                        y-wall-shear
pressure-coefficient

ASCII scalar(1)> cancel
invalid command [cancel]
The file "aa12" already exists.
OK to overwrite? [cancel] 

/file/export> ascii aa12
()
Surfaces(1) [()] 1
Surfaces(2) [()] 
Delimiter/Comma?, if comma not chosen,
space is assumed to be the delimiter [no] 

ASCII scalar(1)> 
absolute-pressure                               pressure-hessian-indicator
acoustic-source-power                           production-of-k
acoustic-source-power-db                        q-criterion
axial-coordinate                                radial-coordinate
boundary-cell-dist                              radial-velocity
boundary-layer-cells                            raw-q-criterion
boundary-normal-dist                            reference-temperature-at-y+
boundary-volume-dist                            rel-mach-number
cell-element-type                               rel-tangential-velocity
cell-equiangle-skew                             rel-total-pressure
cell-equivolume-skew                            rel-total-temperature
cell-id                                         rel-velocity-magnitude
cell-partition-active                           relative-velocity-angle
cell-partition-stored                           relative-x-velocity
cell-refine-level                               relative-y-velocity
cell-reynolds-number                            rothalpy
cell-type                                       skin-friction-coef
cell-volume                                     smoothed-cell-refine-level
cell-volume-change                              sound-speed
cell-wall-distance                              specific-diss-rate
cell-weight                                     specific-heat-cp
cell-zone                                       stanton-number
density                                         strain-rate-mag
density-all                                     stream-function
dt-dx                                           surface-acoustic-power
dt-dy                                           surface-acoustic-power-db
dx-velocity-dx                                  tangential-velocity
dx-velocity-dy                                  temperature
dy-velocity-dx                                  thermal-conductivity-eff
dy-velocity-dy                                  thermal-conductivity-lam
dynamic-pressure                                time-step
enthalpy                                        total-energy
entropy                                         total-enthalpy
face-area-magnitude                             total-enthalpy-deviation
face-handedness                                 total-pressure
gamma                                           total-temperature
gas-constant                                    turb-diss-rate
heat-flux                                       turb-intensity
heat-transfer-coef                              turb-kinetic-energy
heat-transfer-coef-wall                         turb-reynolds-number-rey
heat-transfer-coef-wall-adj                     uref
heat-transfer-coef-yplus                        velocity-angle
interface-overlap-fraction                      velocity-magnitude
internal-energy                                 viscosity-eff
lambda2-criterion                               viscosity-lam
lee-noise-x-source-total                        viscosity-ratio
lee-noise-y-source-total                        viscosity-turb
lee-self-noise-x-source                         vorticity-mag
lee-self-noise-y-source                         wall-adjacent-temperature
lee-shear-noise-x-source                        wall-shear
lee-shear-noise-y-source                        wall-temp-in-surf
lilley-noise-source-total                       wall-temp-out-surf
lilley-self-noise-source                        wall-temp-thin
lilley-shear-noise-source                       wall-temperature
mach-number                                     x-coordinate
mark-poor-elements                              x-face-area
mesh-x-velocity                                 x-velocity
mesh-y-velocity                                 x-wall-shear
nusselt-number                                  y-coordinate
orthogonal-quality                              y-face-area
partition-neighbors                             y-plus
prandtl-number-eff                              y-star
prandtl-number-lam                              y-velocity
pressure                                        y-wall-shear
pressure-coefficient

ASCII scalar(1)> 
absolute-pressure                               pressure-hessian-indicator
acoustic-source-power                           production-of-k
acoustic-source-power-db                        q-criterion
axial-coordinate                                radial-coordinate
boundary-cell-dist                              radial-velocity
boundary-layer-cells                            raw-q-criterion
boundary-normal-dist                            reference-temperature-at-y+
boundary-volume-dist                            rel-mach-number
cell-element-type                               rel-tangential-velocity
cell-equiangle-skew                             rel-total-pressure
cell-equivolume-skew                            rel-total-temperature
cell-id                                         rel-velocity-magnitude
cell-partition-active                           relative-velocity-angle
cell-partition-stored                           relative-x-velocity
cell-refine-level                               relative-y-velocity
cell-reynolds-number                            rothalpy
cell-type                                       skin-friction-coef
cell-volume                                     smoothed-cell-refine-level
cell-volume-change                              sound-speed
cell-wall-distance                              specific-diss-rate
cell-weight                                     specific-heat-cp
cell-zone                                       stanton-number
density                                         strain-rate-mag
density-all                                     stream-function
dt-dx                                           surface-acoustic-power
dt-dy                                           surface-acoustic-power-db
dx-velocity-dx                                  tangential-velocity
dx-velocity-dy                                  temperature
dy-velocity-dx                                  thermal-conductivity-eff
dy-velocity-dy                                  thermal-conductivity-lam
dynamic-pressure                                time-step
enthalpy                                        total-energy
entropy                                         total-enthalpy
face-area-magnitude                             total-enthalpy-deviation
face-handedness                                 total-pressure
gamma                                           total-temperature
gas-constant                                    turb-diss-rate
heat-flux                                       turb-intensity
heat-transfer-coef                              turb-kinetic-energy
heat-transfer-coef-wall                         turb-reynolds-number-rey
heat-transfer-coef-wall-adj                     uref
heat-transfer-coef-yplus                        velocity-angle
interface-overlap-fraction                      velocity-magnitude
internal-energy                                 viscosity-eff
lambda2-criterion                               viscosity-lam
lee-noise-x-source-total                        viscosity-ratio
lee-noise-y-source-total                        viscosity-turb
lee-self-noise-x-source                         vorticity-mag
lee-self-noise-y-source                         wall-adjacent-temperature
lee-shear-noise-x-source                        wall-shear
lee-shear-noise-y-source                        wall-temp-in-surf
lilley-noise-source-total                       wall-temp-out-surf
lilley-self-noise-source                        wall-temp-thin
lilley-shear-noise-source                       wall-temperature
mach-number                                     x-coordinate
mark-poor-elements                              x-face-area
mesh-x-velocity                                 x-velocity
mesh-y-velocity                                 x-wall-shear
nusselt-number                                  y-coordinate
orthogonal-quality                              y-face-area
partition-neighbors                             y-plus
prandtl-number-eff                              y-star
prandtl-number-lam                              y-velocity
pressure                                        y-wall-shear
pressure-coefficient

ASCII scalar(1)> 1
invalid command [1]
The file "aa12" already exists.
OK to overwrite? [cancel] 

/file/export> ascii
ASCII file name [] q
()
Surfaces(1) [()] q

Error: eval: unbound variable
Error Object: q
Invalid surface.
Surfaces(1) [()] q

Error: eval: unbound variable
Error Object: q
Invalid surface.
Surfaces(1) [()] q

Error: eval: unbound variable
Error Object: q
Invalid surface.
Surfaces(1) [()] air
Surfaces(2) [()] air
Surfaces(3) [()] air
Surfaces(4) [()] air
Surfaces(5) [()] a

Error: eval: unbound variable
Error Object: a
Invalid surface.
Surfaces(5) [()] q

Error: eval: unbound variable
Error Object: q
Invalid surface.
Surfaces(5) [()] q

Error: eval: unbound variable
Error Object: q
Invalid surface.
Surfaces(5) [()] 1
Surfaces(6) [()] 2
Surfaces(7) [()] 3
Surfaces(8) [()] 4
Surfaces(9) [()] 5
Invalid surface.
Surfaces(9) [()] 6
Invalid surface.
Surfaces(9) [()] 7
Invalid surface.
Surfaces(9) [()] 8
Invalid surface.
Surfaces(9) [()] 1
Surfaces(10) [()] 
Delimiter/Comma?, if comma not chosen,
space is assumed to be the delimiter [no] ()Please answer y[es] or n[o].

Delimiter/Comma?, if comma not chosen,
space is assumed to be the delimiter [no] ()Please answer y[es] or n[o].

Delimiter/Comma?, if comma not chosen,
space is assumed to be the delimiter [no] ()Please answer y[es] or n[o].

Delimiter/Comma?, if comma not chosen,
space is assumed to be the delimiter [no] ()Please answer y[es] or n[o].

Delimiter/Comma?, if comma not chosen,
space is assumed to be the delimiter [no] ()Please answer y[es] or n[o].

Delimiter/Comma?, if comma not chosen,
space is assumed to be the delimiter [no] 

ASCII scalar(1)> ()
Writing "q"...

Writing information to ascii file ...
Done.



/file/export> ascii
ASCII file name [] oi
()
Surfaces(1) [()] 1
Surfaces(2) [()] ()
Delimiter/Comma?, if comma not chosen,
space is assumed to be the delimiter [no] yes

ASCII scalar(1)> pressure, invalid command [,]
mach-number, temperature
Location/Cell-Centered?,
if Cell-Centered not chosen, node values of scalars are reported [no] no

Writing "oi"...

Writing information to ascii file ...
Done.


/file/export> (cx-gui-do cx-set-list-tree-selections "NavigationPane*Frame2*Table1*List_Tree2" (list "Results|Graphics|Contours|contour-1"))
(cx-gui-do cx-set-list-tree-selections "NavigationPane*Frame2*Table1*List_Tree2" (list "Results|Graphics|Contours|contour-2"))
Writing "oklaaaa"...
Writing information to ascii file ...
Done.

Writing "certo"...
Writing information to ascii file ...
Done.

exit
invalid command [exit]

/file/export> q

/file> q

> q
Use "exit" to leave the main menu.

> exit
The current case and data have not been saved.
OK to discard? [cancel] ok
Shutting down Server...
Services Shutdown...Done.
Server Shutdown...Done.
Queue Cleared...Done.
Shutdown Complete.
Auto-Transcript Stop Time:  13:59:49, 10 Nov 2023 Hora oficial do Brasil 
Total Transcript Time: 1 Hour 33 Minute 21 Second.
