Auto-Transcript Start Time:  10:12:16, 10 Nov 2023 Hora oficial do Brasil 
Current Directory: "H:\Meu Drive\TCC\Programming\cnn-hypersonic\pyFluent"
Information: The server has started and is running.

              Welcome to ANSYS Fluent 2023 R1

              Copyright 1987-2023 ANSYS, Inc. All Rights Reserved.
              Unauthorized use, distribution or duplication is prohibited.
              This product is subject to U.S. laws governing export and re-export.
              For full Legal Notice, see documentation.

Build Time: Nov 28 2022 09:52:02 EST  Build Id: 10208  
 
Connected License Server List:	1055@localhost
Host spawning Node 0 on machine "Guilherme" (win64).

-------------------------------------------------------------------------------------------
ID    Hostname   Core  O.S.         PID    Vendor                                          
-------------------------------------------------------------------------------------------
n7    Guilherme  8/8  Windows-x64  5684   11th Gen Intel(R) Core(TM) i5-1135G7 @ 2.40GHz  
n6    Guilherme  7/8  Windows-x64  20028  11th Gen Intel(R) Core(TM) i5-1135G7 @ 2.40GHz  
n5    Guilherme  6/8  Windows-x64  1248   11th Gen Intel(R) Core(TM) i5-1135G7 @ 2.40GHz  
n4    Guilherme  5/8  Windows-x64  6300   11th Gen Intel(R) Core(TM) i5-1135G7 @ 2.40GHz  
n3    Guilherme  4/8  Windows-x64  19744  11th Gen Intel(R) Core(TM) i5-1135G7 @ 2.40GHz  
n2    Guilherme  3/8  Windows-x64  7968   11th Gen Intel(R) Core(TM) i5-1135G7 @ 2.40GHz  
n1    Guilherme  2/8  Windows-x64  19944  11th Gen Intel(R) Core(TM) i5-1135G7 @ 2.40GHz  
n0*   Guilherme  1/8  Windows-x64  19480  11th Gen Intel(R) Core(TM) i5-1135G7 @ 2.40GHz  
host  Guilherme       Windows-x64  21188  11th Gen Intel(R) Core(TM) i5-1135G7 @ 2.40GHz  

MPI Option Selected: intel
Selected system interconnect: default
-------------------------------------------------------------------------------------------

Cleanup script file is H:\\Meu Drive\\TCC\\Programming\\cnn-hypersonic\\pyFluent\\cleanup-fluent-Guilherme-21188.bat

> Fast-loading "C:\PROGRA~1\ANSYSI~1\v231\fluent\fluent23.1.0\\addons\afd\lib\hdfio.bin"
Done.

Error: File has wrong dimensions (2).
Error Object: "case.cas.h5"
Shutting down Server...
Services Shutdown...Done.
Server Shutdown...Done.
Queue Cleared...Done.
Shutdown Complete.
Auto-Transcript Stop Time:  10:17:00, 10 Nov 2023 Hora oficial do Brasil 
Total Transcript Time: 4 Minute 44 Second.
